  Page 1                                    Wed May  8 17:18:19 2024

  ******************************************************************
  *                           E P A N E T                          *
  *                   Hydraulic and Water Quality                  *
  *                   Analysis for Pipe Networks                   *
  *                         Version 2.2                            *
  ******************************************************************
  
  Analysis begun Wed May  8 17:18:19 2024

  WARNING: Negative pressures at 0:00:00 hrs.
   
  WARNING: Negative pressures at 0:05:00 hrs.
  WARNING: FCV 2-FCV open but cannot deliver flow at 0:05:00 hrs.
   
  WARNING: FCV 2-FCV open but cannot deliver flow at 0:15:00 hrs.
   
  WARNING: FCV 2-FCV open but cannot deliver flow at 0:25:00 hrs.
   
  WARNING: FCV 2-FCV open but cannot deliver flow at 0:35:00 hrs.
   
  WARNING: FCV 2-FCV open but cannot deliver flow at 0:45:00 hrs.
   
  WARNING: FCV 2-FCV open but cannot deliver flow at 0:55:00 hrs.
   
  WARNING: FCV 2-FCV open but cannot deliver flow at 1:00:00 hrs.
   
  WARNING: FCV 2-FCV open but cannot deliver flow at 1:05:00 hrs.
   
  WARNING: FCV 2-FCV open but cannot deliver flow at 1:10:00 hrs.
   
  WARNING: FCV 2-FCV open but cannot deliver flow at 1:15:00 hrs.
   
  WARNING: FCV 2-FCV open but cannot deliver flow at 1:20:00 hrs.
   
  WARNING: FCV 2-FCV open but cannot deliver flow at 1:25:00 hrs.
   
  WARNING: FCV 2-FCV open but cannot deliver flow at 1:30:00 hrs.
   
  WARNING: FCV 2-FCV open but cannot deliver flow at 1:35:00 hrs.
   
  WARNING: FCV 2-FCV open but cannot deliver flow at 1:40:00 hrs.
   
  WARNING: FCV 2-FCV open but cannot deliver flow at 1:45:00 hrs.
   
  WARNING: FCV 2-FCV open but cannot deliver flow at 1:50:00 hrs.
   
  WARNING: FCV 2-FCV open but cannot deliver flow at 1:55:00 hrs.
   
  WARNING: FCV 2-FCV open but cannot deliver flow at 2:00:00 hrs.
   
  WARNING: FCV 2-FCV open but cannot deliver flow at 2:05:00 hrs.
   
  WARNING: FCV 2-FCV open but cannot deliver flow at 2:10:00 hrs.
   
  WARNING: FCV 2-FCV open but cannot deliver flow at 2:15:00 hrs.
   
  WARNING: FCV 2-FCV open but cannot deliver flow at 2:20:00 hrs.
   
  WARNING: FCV 2-FCV open but cannot deliver flow at 2:25:00 hrs.
   
  WARNING: FCV 2-FCV open but cannot deliver flow at 2:30:00 hrs.
   
  WARNING: FCV 2-FCV open but cannot deliver flow at 2:35:00 hrs.
   
  WARNING: FCV 2-FCV open but cannot deliver flow at 2:40:00 hrs.
   
  WARNING: FCV 2-FCV open but cannot deliver flow at 2:45:00 hrs.
   
  WARNING: FCV 2-FCV open but cannot deliver flow at 2:50:00 hrs.
   
  WARNING: FCV 2-FCV open but cannot deliver flow at 2:55:00 hrs.
   
  WARNING: FCV 2-FCV open but cannot deliver flow at 3:00:00 hrs.
   
  WARNING: FCV 2-FCV open but cannot deliver flow at 3:05:00 hrs.
   
  WARNING: FCV 2-FCV open but cannot deliver flow at 3:10:00 hrs.
   
  WARNING: FCV 2-FCV open but cannot deliver flow at 3:15:00 hrs.
   
  WARNING: FCV 2-FCV open but cannot deliver flow at 3:20:00 hrs.
   
  WARNING: FCV 2-FCV open but cannot deliver flow at 3:25:00 hrs.
   
  WARNING: FCV 2-FCV open but cannot deliver flow at 3:30:00 hrs.
   
  WARNING: FCV 2-FCV open but cannot deliver flow at 3:35:00 hrs.
   
  WARNING: FCV 2-FCV open but cannot deliver flow at 3:40:00 hrs.
   
  WARNING: FCV 2-FCV open but cannot deliver flow at 3:45:00 hrs.
   
  WARNING: FCV 2-FCV open but cannot deliver flow at 3:50:00 hrs.
   
  WARNING: FCV 2-FCV open but cannot deliver flow at 3:55:00 hrs.
   
  WARNING: FCV 2-FCV open but cannot deliver flow at 4:00:00 hrs.
   
  WARNING: FCV 2-FCV open but cannot deliver flow at 4:05:00 hrs.
   
  WARNING: FCV 2-FCV open but cannot deliver flow at 4:10:00 hrs.
   
  WARNING: FCV 2-FCV open but cannot deliver flow at 4:15:00 hrs.
   
  WARNING: FCV 2-FCV open but cannot deliver flow at 4:20:00 hrs.
   
  WARNING: FCV 2-FCV open but cannot deliver flow at 4:25:00 hrs.
   
  WARNING: FCV 2-FCV open but cannot deliver flow at 4:30:00 hrs.
   
  WARNING: FCV 2-FCV open but cannot deliver flow at 4:35:00 hrs.
   
  WARNING: FCV 2-FCV open but cannot deliver flow at 4:40:00 hrs.
   
  WARNING: FCV 2-FCV open but cannot deliver flow at 4:45:00 hrs.
   
  WARNING: FCV 2-FCV open but cannot deliver flow at 4:50:00 hrs.
   
  WARNING: FCV 2-FCV open but cannot deliver flow at 4:55:00 hrs.
   
  WARNING: FCV 2-FCV open but cannot deliver flow at 5:00:00 hrs.
   
  WARNING: FCV 2-FCV open but cannot deliver flow at 5:05:00 hrs.
   
  WARNING: FCV 2-FCV open but cannot deliver flow at 5:10:00 hrs.
   
  WARNING: FCV 2-FCV open but cannot deliver flow at 5:15:00 hrs.
   
  WARNING: FCV 2-FCV open but cannot deliver flow at 5:20:00 hrs.
   
  WARNING: FCV 2-FCV open but cannot deliver flow at 5:25:00 hrs.
   
  WARNING: FCV 2-FCV open but cannot deliver flow at 5:30:00 hrs.
   
  WARNING: FCV 2-FCV open but cannot deliver flow at 5:35:00 hrs.
   
  WARNING: FCV 2-FCV open but cannot deliver flow at 5:40:00 hrs.
   
  WARNING: FCV 2-FCV open but cannot deliver flow at 5:45:00 hrs.
   
  WARNING: FCV 2-FCV open but cannot deliver flow at 5:50:00 hrs.
   
  WARNING: FCV 2-FCV open but cannot deliver flow at 5:55:00 hrs.
   
  WARNING: FCV 2-FCV open but cannot deliver flow at 6:00:00 hrs.
   
  WARNING: FCV 2-FCV open but cannot deliver flow at 6:05:00 hrs.
   
  WARNING: FCV 2-FCV open but cannot deliver flow at 6:10:00 hrs.
   
  WARNING: FCV 2-FCV open but cannot deliver flow at 6:15:00 hrs.
   
  WARNING: FCV 2-FCV open but cannot deliver flow at 6:20:00 hrs.
   
  WARNING: FCV 2-FCV open but cannot deliver flow at 6:25:00 hrs.
   
  WARNING: FCV 2-FCV open but cannot deliver flow at 6:30:00 hrs.
   
  WARNING: FCV 2-FCV open but cannot deliver flow at 6:35:00 hrs.
   
  WARNING: FCV 2-FCV open but cannot deliver flow at 6:40:00 hrs.
   
  WARNING: FCV 2-FCV open but cannot deliver flow at 6:45:00 hrs.
   
  WARNING: FCV 2-FCV open but cannot deliver flow at 6:50:00 hrs.
   
  WARNING: FCV 2-FCV open but cannot deliver flow at 6:55:00 hrs.
   
  WARNING: FCV 2-FCV open but cannot deliver flow at 7:00:00 hrs.
   
  WARNING: FCV 2-FCV open but cannot deliver flow at 7:05:00 hrs.
   
  WARNING: FCV 2-FCV open but cannot deliver flow at 7:10:00 hrs.
   
  WARNING: FCV 2-FCV open but cannot deliver flow at 7:15:00 hrs.
   
  WARNING: FCV 2-FCV open but cannot deliver flow at 7:20:00 hrs.
   
  WARNING: FCV 2-FCV open but cannot deliver flow at 7:25:00 hrs.
   
  WARNING: FCV 2-FCV open but cannot deliver flow at 7:30:00 hrs.
   
  WARNING: FCV 2-FCV open but cannot deliver flow at 7:35:00 hrs.
   
  WARNING: FCV 2-FCV open but cannot deliver flow at 7:40:00 hrs.
   
  WARNING: FCV 2-FCV open but cannot deliver flow at 7:45:00 hrs.
   
  WARNING: FCV 2-FCV open but cannot deliver flow at 7:50:00 hrs.
   
  WARNING: FCV 2-FCV open but cannot deliver flow at 7:55:00 hrs.
   
  WARNING: FCV 2-FCV open but cannot deliver flow at 8:00:00 hrs.
   
  WARNING: FCV 2-FCV open but cannot deliver flow at 8:05:00 hrs.
   
  WARNING: FCV 2-FCV open but cannot deliver flow at 8:10:00 hrs.
   
  WARNING: FCV 2-FCV open but cannot deliver flow at 8:15:00 hrs.
   
  WARNING: FCV 2-FCV open but cannot deliver flow at 8:20:00 hrs.
   
  WARNING: FCV 2-FCV open but cannot deliver flow at 8:25:00 hrs.
   
  WARNING: FCV 2-FCV open but cannot deliver flow at 8:30:00 hrs.
   
  WARNING: FCV 2-FCV open but cannot deliver flow at 8:35:00 hrs.
   
  WARNING: FCV 2-FCV open but cannot deliver flow at 8:40:00 hrs.
   
  WARNING: FCV 2-FCV open but cannot deliver flow at 8:45:00 hrs.
   
  WARNING: FCV 2-FCV open but cannot deliver flow at 8:50:00 hrs.
   
  WARNING: FCV 2-FCV open but cannot deliver flow at 8:55:00 hrs.
   
  WARNING: FCV 2-FCV open but cannot deliver flow at 9:00:00 hrs.
   
  WARNING: FCV 2-FCV open but cannot deliver flow at 9:05:00 hrs.
   
  WARNING: FCV 2-FCV open but cannot deliver flow at 9:10:00 hrs.
   
  WARNING: FCV 2-FCV open but cannot deliver flow at 9:15:00 hrs.
   
  WARNING: FCV 2-FCV open but cannot deliver flow at 9:20:00 hrs.
   
  WARNING: FCV 2-FCV open but cannot deliver flow at 9:25:00 hrs.
   
  WARNING: FCV 2-FCV open but cannot deliver flow at 9:30:00 hrs.
   
  WARNING: FCV 2-FCV open but cannot deliver flow at 9:35:00 hrs.
   
  WARNING: FCV 2-FCV open but cannot deliver flow at 9:40:00 hrs.
   
  WARNING: FCV 2-FCV open but cannot deliver flow at 9:45:00 hrs.
   
  WARNING: FCV 2-FCV open but cannot deliver flow at 9:50:00 hrs.
   
  WARNING: FCV 2-FCV open but cannot deliver flow at 9:55:00 hrs.
   
  WARNING: FCV 2-FCV open but cannot deliver flow at 10:00:00 hrs.
   
  WARNING: FCV 2-FCV open but cannot deliver flow at 10:05:00 hrs.
   
  WARNING: FCV 2-FCV open but cannot deliver flow at 10:10:00 hrs.
   
  WARNING: FCV 2-FCV open but cannot deliver flow at 10:15:00 hrs.
   
  WARNING: FCV 2-FCV open but cannot deliver flow at 10:20:00 hrs.
   
  WARNING: FCV 2-FCV open but cannot deliver flow at 10:25:00 hrs.
   
  WARNING: FCV 2-FCV open but cannot deliver flow at 10:30:00 hrs.
   
  WARNING: FCV 2-FCV open but cannot deliver flow at 10:35:00 hrs.
   
  WARNING: FCV 2-FCV open but cannot deliver flow at 10:40:00 hrs.
   
  WARNING: FCV 2-FCV open but cannot deliver flow at 10:45:00 hrs.
   
  WARNING: FCV 2-FCV open but cannot deliver flow at 10:50:00 hrs.
   
  WARNING: FCV 2-FCV open but cannot deliver flow at 10:55:00 hrs.
   
  WARNING: FCV 2-FCV open but cannot deliver flow at 11:00:00 hrs.
   
  WARNING: FCV 2-FCV open but cannot deliver flow at 11:05:00 hrs.
   
  WARNING: FCV 2-FCV open but cannot deliver flow at 11:10:00 hrs.
   
  WARNING: FCV 2-FCV open but cannot deliver flow at 11:15:00 hrs.
   
  WARNING: FCV 2-FCV open but cannot deliver flow at 11:20:00 hrs.
   
  WARNING: FCV 2-FCV open but cannot deliver flow at 11:25:00 hrs.
   
  WARNING: FCV 2-FCV open but cannot deliver flow at 11:30:00 hrs.
   
  WARNING: FCV 2-FCV open but cannot deliver flow at 11:35:00 hrs.
   
  WARNING: FCV 2-FCV open but cannot deliver flow at 11:40:00 hrs.
   
  WARNING: FCV 2-FCV open but cannot deliver flow at 11:45:00 hrs.
   
  WARNING: FCV 2-FCV open but cannot deliver flow at 11:50:00 hrs.
   
  WARNING: FCV 2-FCV open but cannot deliver flow at 11:55:00 hrs.
   
  WARNING: FCV 2-FCV open but cannot deliver flow at 12:00:00 hrs.
   
  WARNING: FCV 2-FCV open but cannot deliver flow at 12:05:00 hrs.
   
  WARNING: FCV 2-FCV open but cannot deliver flow at 12:10:00 hrs.
   
  WARNING: FCV 2-FCV open but cannot deliver flow at 12:15:00 hrs.
   
  WARNING: FCV 2-FCV open but cannot deliver flow at 12:20:00 hrs.
   
  WARNING: FCV 2-FCV open but cannot deliver flow at 12:25:00 hrs.
   
  WARNING: FCV 2-FCV open but cannot deliver flow at 12:30:00 hrs.
   
  WARNING: FCV 2-FCV open but cannot deliver flow at 12:35:00 hrs.
   
  WARNING: FCV 2-FCV open but cannot deliver flow at 12:40:00 hrs.
   
  WARNING: FCV 2-FCV open but cannot deliver flow at 12:45:00 hrs.
   
  WARNING: FCV 2-FCV open but cannot deliver flow at 12:50:00 hrs.
   
  WARNING: FCV 2-FCV open but cannot deliver flow at 12:55:00 hrs.
   
  WARNING: FCV 2-FCV open but cannot deliver flow at 13:00:00 hrs.
   
  WARNING: FCV 2-FCV open but cannot deliver flow at 13:05:00 hrs.
   
  WARNING: FCV 2-FCV open but cannot deliver flow at 13:10:00 hrs.
   
  WARNING: FCV 2-FCV open but cannot deliver flow at 13:15:00 hrs.
   
  WARNING: FCV 2-FCV open but cannot deliver flow at 13:20:00 hrs.
   
  WARNING: FCV 2-FCV open but cannot deliver flow at 13:25:00 hrs.
   
  WARNING: FCV 2-FCV open but cannot deliver flow at 13:30:00 hrs.
   
  WARNING: FCV 2-FCV open but cannot deliver flow at 13:35:00 hrs.
   
  WARNING: FCV 2-FCV open but cannot deliver flow at 13:40:00 hrs.
   
  WARNING: FCV 2-FCV open but cannot deliver flow at 13:45:00 hrs.
   
  WARNING: FCV 2-FCV open but cannot deliver flow at 13:50:00 hrs.
   
  WARNING: FCV 2-FCV open but cannot deliver flow at 13:55:00 hrs.
   
  WARNING: FCV 2-FCV open but cannot deliver flow at 14:00:00 hrs.
   
  WARNING: FCV 2-FCV open but cannot deliver flow at 14:05:00 hrs.
   
  WARNING: FCV 2-FCV open but cannot deliver flow at 14:10:00 hrs.
   
  WARNING: FCV 2-FCV open but cannot deliver flow at 14:15:00 hrs.
   
  WARNING: FCV 2-FCV open but cannot deliver flow at 14:20:00 hrs.
   
  WARNING: FCV 2-FCV open but cannot deliver flow at 14:25:00 hrs.
   
  WARNING: FCV 2-FCV open but cannot deliver flow at 14:30:00 hrs.
   
  WARNING: FCV 2-FCV open but cannot deliver flow at 14:35:00 hrs.
   
  WARNING: FCV 2-FCV open but cannot deliver flow at 14:40:00 hrs.
   
  WARNING: FCV 2-FCV open but cannot deliver flow at 14:45:00 hrs.
   
  WARNING: FCV 2-FCV open but cannot deliver flow at 14:50:00 hrs.
   
  WARNING: FCV 2-FCV open but cannot deliver flow at 14:55:00 hrs.
   
  WARNING: FCV 2-FCV open but cannot deliver flow at 15:00:00 hrs.
   
  WARNING: FCV 2-FCV open but cannot deliver flow at 15:05:00 hrs.
   
  WARNING: FCV 2-FCV open but cannot deliver flow at 15:10:00 hrs.
   
  WARNING: FCV 2-FCV open but cannot deliver flow at 15:15:00 hrs.
   
  WARNING: FCV 2-FCV open but cannot deliver flow at 15:20:00 hrs.
   
  WARNING: FCV 2-FCV open but cannot deliver flow at 15:25:00 hrs.
   
  WARNING: FCV 2-FCV open but cannot deliver flow at 15:30:00 hrs.
   
  WARNING: FCV 2-FCV open but cannot deliver flow at 15:35:00 hrs.
   
  WARNING: FCV 2-FCV open but cannot deliver flow at 15:40:00 hrs.
   
  WARNING: FCV 2-FCV open but cannot deliver flow at 15:45:00 hrs.
   
  WARNING: FCV 2-FCV open but cannot deliver flow at 15:50:00 hrs.
   
  WARNING: FCV 2-FCV open but cannot deliver flow at 15:55:00 hrs.
   
  WARNING: FCV 2-FCV open but cannot deliver flow at 16:00:00 hrs.
   
  WARNING: FCV 2-FCV open but cannot deliver flow at 16:05:00 hrs.
   
  WARNING: FCV 2-FCV open but cannot deliver flow at 16:10:00 hrs.
   
  WARNING: FCV 2-FCV open but cannot deliver flow at 16:15:00 hrs.
   
  WARNING: FCV 2-FCV open but cannot deliver flow at 16:20:00 hrs.
   
  WARNING: FCV 2-FCV open but cannot deliver flow at 16:25:00 hrs.
   
  WARNING: FCV 2-FCV open but cannot deliver flow at 16:30:00 hrs.
   
  WARNING: FCV 2-FCV open but cannot deliver flow at 16:35:00 hrs.
   
  WARNING: FCV 2-FCV open but cannot deliver flow at 16:40:00 hrs.
   
  WARNING: FCV 2-FCV open but cannot deliver flow at 16:45:00 hrs.
   
  WARNING: FCV 2-FCV open but cannot deliver flow at 16:50:00 hrs.
   
  WARNING: FCV 2-FCV open but cannot deliver flow at 16:55:00 hrs.
   
  WARNING: FCV 2-FCV open but cannot deliver flow at 17:00:00 hrs.
   
  WARNING: FCV 2-FCV open but cannot deliver flow at 17:05:00 hrs.
   
  WARNING: FCV 2-FCV open but cannot deliver flow at 17:10:00 hrs.
   
  WARNING: FCV 2-FCV open but cannot deliver flow at 17:15:00 hrs.
   
  WARNING: FCV 2-FCV open but cannot deliver flow at 17:20:00 hrs.
   
  WARNING: FCV 2-FCV open but cannot deliver flow at 17:25:00 hrs.
   
  WARNING: FCV 2-FCV open but cannot deliver flow at 17:30:00 hrs.
   
  WARNING: FCV 2-FCV open but cannot deliver flow at 17:35:00 hrs.
   
  WARNING: FCV 2-FCV open but cannot deliver flow at 17:40:00 hrs.
   
  WARNING: FCV 2-FCV open but cannot deliver flow at 17:45:00 hrs.
   
  WARNING: FCV 2-FCV open but cannot deliver flow at 17:50:00 hrs.
   
  WARNING: FCV 2-FCV open but cannot deliver flow at 17:55:00 hrs.
   
  WARNING: FCV 2-FCV open but cannot deliver flow at 18:00:00 hrs.
   
  WARNING: FCV 2-FCV open but cannot deliver flow at 18:05:00 hrs.
   
  WARNING: FCV 2-FCV open but cannot deliver flow at 18:10:00 hrs.
   
  WARNING: FCV 2-FCV open but cannot deliver flow at 18:15:00 hrs.
   
  WARNING: FCV 2-FCV open but cannot deliver flow at 18:20:00 hrs.
   
  WARNING: FCV 2-FCV open but cannot deliver flow at 18:25:00 hrs.
   
  WARNING: FCV 2-FCV open but cannot deliver flow at 18:30:00 hrs.
   
  WARNING: FCV 2-FCV open but cannot deliver flow at 18:35:00 hrs.
   
  WARNING: FCV 2-FCV open but cannot deliver flow at 18:40:00 hrs.
   
  WARNING: FCV 2-FCV open but cannot deliver flow at 18:45:00 hrs.
   
  WARNING: FCV 2-FCV open but cannot deliver flow at 18:50:00 hrs.
   
  WARNING: FCV 2-FCV open but cannot deliver flow at 18:55:00 hrs.
   
  WARNING: FCV 2-FCV open but cannot deliver flow at 19:00:00 hrs.
   
  WARNING: FCV 2-FCV open but cannot deliver flow at 19:05:00 hrs.
   
  WARNING: FCV 2-FCV open but cannot deliver flow at 19:10:00 hrs.
   
  WARNING: FCV 2-FCV open but cannot deliver flow at 19:15:00 hrs.
   
  WARNING: FCV 2-FCV open but cannot deliver flow at 19:20:00 hrs.
   
  WARNING: FCV 2-FCV open but cannot deliver flow at 19:25:00 hrs.
   
  WARNING: FCV 2-FCV open but cannot deliver flow at 19:30:00 hrs.
   
  WARNING: FCV 2-FCV open but cannot deliver flow at 19:35:00 hrs.
   
  WARNING: FCV 2-FCV open but cannot deliver flow at 19:40:00 hrs.
   
  WARNING: FCV 2-FCV open but cannot deliver flow at 19:45:00 hrs.
   
  WARNING: FCV 2-FCV open but cannot deliver flow at 19:50:00 hrs.
   
  WARNING: FCV 2-FCV open but cannot deliver flow at 19:55:00 hrs.
   
  WARNING: FCV 2-FCV open but cannot deliver flow at 20:00:00 hrs.
   
  WARNING: FCV 2-FCV open but cannot deliver flow at 20:05:00 hrs.
   
  WARNING: FCV 2-FCV open but cannot deliver flow at 20:10:00 hrs.
   
  WARNING: FCV 2-FCV open but cannot deliver flow at 20:15:00 hrs.
   
  WARNING: FCV 2-FCV open but cannot deliver flow at 20:20:00 hrs.
   
  WARNING: FCV 2-FCV open but cannot deliver flow at 20:25:00 hrs.
   
  WARNING: FCV 2-FCV open but cannot deliver flow at 20:30:00 hrs.
   
  WARNING: FCV 2-FCV open but cannot deliver flow at 20:35:00 hrs.
   
  WARNING: FCV 2-FCV open but cannot deliver flow at 20:40:00 hrs.
   
  WARNING: FCV 2-FCV open but cannot deliver flow at 20:45:00 hrs.
   
  WARNING: FCV 2-FCV open but cannot deliver flow at 20:50:00 hrs.
   
  WARNING: FCV 2-FCV open but cannot deliver flow at 20:55:00 hrs.
   
  WARNING: FCV 2-FCV open but cannot deliver flow at 21:00:00 hrs.
   
  WARNING: FCV 2-FCV open but cannot deliver flow at 21:05:00 hrs.
   
  WARNING: FCV 2-FCV open but cannot deliver flow at 21:10:00 hrs.
   
  WARNING: FCV 2-FCV open but cannot deliver flow at 21:15:00 hrs.
   
  WARNING: FCV 2-FCV open but cannot deliver flow at 21:20:00 hrs.
   
  WARNING: FCV 2-FCV open but cannot deliver flow at 21:25:00 hrs.
   
  WARNING: FCV 2-FCV open but cannot deliver flow at 21:30:00 hrs.
   
  WARNING: FCV 2-FCV open but cannot deliver flow at 21:35:00 hrs.
   
  WARNING: FCV 2-FCV open but cannot deliver flow at 21:40:00 hrs.
   
  WARNING: FCV 2-FCV open but cannot deliver flow at 21:45:00 hrs.
   
  WARNING: FCV 2-FCV open but cannot deliver flow at 21:50:00 hrs.
   
  WARNING: FCV 2-FCV open but cannot deliver flow at 21:55:00 hrs.
   
  WARNING: FCV 2-FCV open but cannot deliver flow at 22:00:00 hrs.
   
  WARNING: FCV 2-FCV open but cannot deliver flow at 22:05:00 hrs.
   
  WARNING: FCV 2-FCV open but cannot deliver flow at 22:10:00 hrs.
   
  WARNING: FCV 2-FCV open but cannot deliver flow at 22:15:00 hrs.
   
  WARNING: FCV 2-FCV open but cannot deliver flow at 22:20:00 hrs.
   
  WARNING: FCV 2-FCV open but cannot deliver flow at 22:25:00 hrs.
   
  WARNING: FCV 2-FCV open but cannot deliver flow at 22:30:00 hrs.
   
  WARNING: FCV 2-FCV open but cannot deliver flow at 22:35:00 hrs.
   
  WARNING: FCV 2-FCV open but cannot deliver flow at 22:40:00 hrs.
   
  WARNING: FCV 2-FCV open but cannot deliver flow at 22:45:00 hrs.
   
  WARNING: FCV 2-FCV open but cannot deliver flow at 22:50:00 hrs.
   
  WARNING: FCV 2-FCV open but cannot deliver flow at 22:55:00 hrs.
   
  WARNING: FCV 2-FCV open but cannot deliver flow at 23:00:00 hrs.
   
  WARNING: FCV 2-FCV open but cannot deliver flow at 23:05:00 hrs.
   
  WARNING: FCV 2-FCV open but cannot deliver flow at 23:10:00 hrs.
   
  WARNING: FCV 2-FCV open but cannot deliver flow at 23:15:00 hrs.
   
  WARNING: FCV 2-FCV open but cannot deliver flow at 23:20:00 hrs.
   
  WARNING: FCV 2-FCV open but cannot deliver flow at 23:25:00 hrs.
   
  WARNING: FCV 2-FCV open but cannot deliver flow at 23:30:00 hrs.
   
  WARNING: FCV 2-FCV open but cannot deliver flow at 23:35:00 hrs.
   
  WARNING: FCV 2-FCV open but cannot deliver flow at 23:40:00 hrs.
   
  WARNING: FCV 2-FCV open but cannot deliver flow at 23:45:00 hrs.
   
  WARNING: FCV 2-FCV open but cannot deliver flow at 23:50:00 hrs.
   
  WARNING: FCV 2-FCV open but cannot deliver flow at 23:55:00 hrs.
   
  WARNING: FCV 2-FCV open but cannot deliver flow at 24:00:00 hrs.
   
  WARNING: FCV 2-FCV open but cannot deliver flow at 24:05:00 hrs.
   
  WARNING: FCV 2-FCV open but cannot deliver flow at 24:10:00 hrs.
   
  WARNING: FCV 2-FCV open but cannot deliver flow at 24:15:00 hrs.
   
  WARNING: FCV 2-FCV open but cannot deliver flow at 24:20:00 hrs.
   
  WARNING: FCV 2-FCV open but cannot deliver flow at 24:25:00 hrs.
   
  WARNING: FCV 2-FCV open but cannot deliver flow at 24:30:00 hrs.
   
  WARNING: FCV 2-FCV open but cannot deliver flow at 24:35:00 hrs.
   
  WARNING: FCV 2-FCV open but cannot deliver flow at 24:40:00 hrs.
   
  WARNING: FCV 2-FCV open but cannot deliver flow at 24:45:00 hrs.
   
  WARNING: FCV 2-FCV open but cannot deliver flow at 24:50:00 hrs.
   
  WARNING: FCV 2-FCV open but cannot deliver flow at 24:55:00 hrs.
   
  WARNING: FCV 2-FCV open but cannot deliver flow at 25:00:00 hrs.
   
  WARNING: FCV 2-FCV open but cannot deliver flow at 25:05:00 hrs.
   
  WARNING: FCV 2-FCV open but cannot deliver flow at 25:10:00 hrs.
   
  WARNING: FCV 2-FCV open but cannot deliver flow at 25:15:00 hrs.
   
  WARNING: FCV 2-FCV open but cannot deliver flow at 25:20:00 hrs.
   
  WARNING: FCV 2-FCV open but cannot deliver flow at 25:25:00 hrs.
   
  WARNING: FCV 2-FCV open but cannot deliver flow at 25:30:00 hrs.
   
  WARNING: FCV 2-FCV open but cannot deliver flow at 25:35:00 hrs.
   
  WARNING: FCV 2-FCV open but cannot deliver flow at 25:40:00 hrs.
   
  WARNING: FCV 2-FCV open but cannot deliver flow at 25:45:00 hrs.
   
  WARNING: FCV 2-FCV open but cannot deliver flow at 25:50:00 hrs.
   
  WARNING: FCV 2-FCV open but cannot deliver flow at 25:55:00 hrs.
   
  WARNING: FCV 2-FCV open but cannot deliver flow at 26:00:00 hrs.
   
  WARNING: FCV 2-FCV open but cannot deliver flow at 26:05:00 hrs.
   
  WARNING: FCV 2-FCV open but cannot deliver flow at 26:10:00 hrs.
   
  WARNING: FCV 2-FCV open but cannot deliver flow at 26:15:00 hrs.
   
  WARNING: FCV 2-FCV open but cannot deliver flow at 26:20:00 hrs.
   
  WARNING: FCV 2-FCV open but cannot deliver flow at 26:25:00 hrs.
   
  WARNING: FCV 2-FCV open but cannot deliver flow at 26:30:00 hrs.
   
  WARNING: FCV 2-FCV open but cannot deliver flow at 26:35:00 hrs.
   
  WARNING: FCV 2-FCV open but cannot deliver flow at 26:40:00 hrs.
   
  WARNING: FCV 2-FCV open but cannot deliver flow at 26:45:00 hrs.
   
  WARNING: FCV 2-FCV open but cannot deliver flow at 26:50:00 hrs.
   
  WARNING: FCV 2-FCV open but cannot deliver flow at 26:55:00 hrs.
   
  WARNING: FCV 2-FCV open but cannot deliver flow at 27:00:00 hrs.
   
  WARNING: FCV 2-FCV open but cannot deliver flow at 27:05:00 hrs.
   
  WARNING: FCV 2-FCV open but cannot deliver flow at 27:10:00 hrs.
   
  WARNING: FCV 2-FCV open but cannot deliver flow at 27:15:00 hrs.
   
  WARNING: FCV 2-FCV open but cannot deliver flow at 27:20:00 hrs.
   
  WARNING: FCV 2-FCV open but cannot deliver flow at 27:25:00 hrs.
   
  WARNING: FCV 2-FCV open but cannot deliver flow at 27:30:00 hrs.
   
  WARNING: FCV 2-FCV open but cannot deliver flow at 27:35:00 hrs.
   
  WARNING: FCV 2-FCV open but cannot deliver flow at 27:40:00 hrs.
   
  WARNING: FCV 2-FCV open but cannot deliver flow at 27:45:00 hrs.
   
  WARNING: FCV 2-FCV open but cannot deliver flow at 27:50:00 hrs.
   
  WARNING: FCV 2-FCV open but cannot deliver flow at 27:55:00 hrs.
   
  WARNING: FCV 2-FCV open but cannot deliver flow at 28:00:00 hrs.
   
  WARNING: FCV 2-FCV open but cannot deliver flow at 28:05:00 hrs.
   
  WARNING: FCV 2-FCV open but cannot deliver flow at 28:10:00 hrs.
   
  WARNING: FCV 2-FCV open but cannot deliver flow at 28:15:00 hrs.
   
  WARNING: FCV 2-FCV open but cannot deliver flow at 28:20:00 hrs.
   
  WARNING: FCV 2-FCV open but cannot deliver flow at 28:25:00 hrs.
   
  WARNING: FCV 2-FCV open but cannot deliver flow at 28:30:00 hrs.
   
  WARNING: FCV 2-FCV open but cannot deliver flow at 28:35:00 hrs.
   
  WARNING: FCV 2-FCV open but cannot deliver flow at 28:40:00 hrs.
   
  WARNING: FCV 2-FCV open but cannot deliver flow at 28:45:00 hrs.
   
  WARNING: FCV 2-FCV open but cannot deliver flow at 28:50:00 hrs.
   
  WARNING: FCV 2-FCV open but cannot deliver flow at 28:55:00 hrs.
   
  WARNING: FCV 2-FCV open but cannot deliver flow at 29:00:00 hrs.
   
  WARNING: FCV 2-FCV open but cannot deliver flow at 29:05:00 hrs.
   
  WARNING: FCV 2-FCV open but cannot deliver flow at 29:10:00 hrs.
   
  WARNING: FCV 2-FCV open but cannot deliver flow at 29:15:00 hrs.
   
  WARNING: FCV 2-FCV open but cannot deliver flow at 29:20:00 hrs.
   
  WARNING: FCV 2-FCV open but cannot deliver flow at 29:25:00 hrs.
   
  WARNING: FCV 2-FCV open but cannot deliver flow at 29:30:00 hrs.
   
  WARNING: FCV 2-FCV open but cannot deliver flow at 29:35:00 hrs.
   
  WARNING: FCV 2-FCV open but cannot deliver flow at 29:40:00 hrs.
   
  WARNING: FCV 2-FCV open but cannot deliver flow at 29:45:00 hrs.
   
  WARNING: FCV 2-FCV open but cannot deliver flow at 29:50:00 hrs.
   
  WARNING: FCV 2-FCV open but cannot deliver flow at 29:55:00 hrs.
   
  WARNING: FCV 2-FCV open but cannot deliver flow at 30:00:00 hrs.
   
  WARNING: FCV 2-FCV open but cannot deliver flow at 30:05:00 hrs.
   
  WARNING: FCV 2-FCV open but cannot deliver flow at 30:10:00 hrs.
   
  WARNING: FCV 2-FCV open but cannot deliver flow at 30:15:00 hrs.
   
  WARNING: FCV 2-FCV open but cannot deliver flow at 30:20:00 hrs.
   
  WARNING: FCV 2-FCV open but cannot deliver flow at 30:25:00 hrs.
   
  WARNING: FCV 2-FCV open but cannot deliver flow at 30:30:00 hrs.
   
  WARNING: FCV 2-FCV open but cannot deliver flow at 30:35:00 hrs.
   
  WARNING: FCV 2-FCV open but cannot deliver flow at 30:40:00 hrs.
   
  WARNING: FCV 2-FCV open but cannot deliver flow at 30:45:00 hrs.
   
  WARNING: FCV 2-FCV open but cannot deliver flow at 30:50:00 hrs.
   
  WARNING: FCV 2-FCV open but cannot deliver flow at 30:55:00 hrs.
   
  WARNING: FCV 2-FCV open but cannot deliver flow at 31:00:00 hrs.
   
  WARNING: FCV 2-FCV open but cannot deliver flow at 31:05:00 hrs.
   
  WARNING: FCV 2-FCV open but cannot deliver flow at 31:10:00 hrs.
   
  WARNING: FCV 2-FCV open but cannot deliver flow at 31:15:00 hrs.
   
  WARNING: FCV 2-FCV open but cannot deliver flow at 31:20:00 hrs.
   
  WARNING: FCV 2-FCV open but cannot deliver flow at 31:25:00 hrs.
   
  WARNING: FCV 2-FCV open but cannot deliver flow at 31:30:00 hrs.
   
  WARNING: FCV 2-FCV open but cannot deliver flow at 31:35:00 hrs.
   
  WARNING: FCV 2-FCV open but cannot deliver flow at 31:40:00 hrs.
   
  WARNING: FCV 2-FCV open but cannot deliver flow at 31:45:00 hrs.
   
  WARNING: FCV 2-FCV open but cannot deliver flow at 31:50:00 hrs.
   
  WARNING: FCV 2-FCV open but cannot deliver flow at 31:55:00 hrs.
   
  WARNING: FCV 2-FCV open but cannot deliver flow at 32:00:00 hrs.
   
  WARNING: FCV 2-FCV open but cannot deliver flow at 32:05:00 hrs.
   
  WARNING: FCV 2-FCV open but cannot deliver flow at 32:10:00 hrs.
   
  WARNING: FCV 2-FCV open but cannot deliver flow at 32:15:00 hrs.
   
  WARNING: FCV 2-FCV open but cannot deliver flow at 32:20:00 hrs.
   
  WARNING: FCV 2-FCV open but cannot deliver flow at 32:25:00 hrs.
   
  WARNING: FCV 2-FCV open but cannot deliver flow at 32:30:00 hrs.
   
  WARNING: FCV 2-FCV open but cannot deliver flow at 32:35:00 hrs.
   
  WARNING: FCV 2-FCV open but cannot deliver flow at 32:40:00 hrs.
   
  WARNING: FCV 2-FCV open but cannot deliver flow at 32:45:00 hrs.
   
  WARNING: FCV 2-FCV open but cannot deliver flow at 32:50:00 hrs.
   
  WARNING: FCV 2-FCV open but cannot deliver flow at 32:55:00 hrs.
   
  WARNING: FCV 2-FCV open but cannot deliver flow at 33:00:00 hrs.
   
  WARNING: FCV 2-FCV open but cannot deliver flow at 33:05:00 hrs.
   
  WARNING: FCV 2-FCV open but cannot deliver flow at 33:10:00 hrs.
   
  WARNING: FCV 2-FCV open but cannot deliver flow at 33:15:00 hrs.
   
  WARNING: FCV 2-FCV open but cannot deliver flow at 33:20:00 hrs.
   
  WARNING: FCV 2-FCV open but cannot deliver flow at 33:25:00 hrs.
   
  WARNING: FCV 2-FCV open but cannot deliver flow at 33:30:00 hrs.
   
  WARNING: FCV 2-FCV open but cannot deliver flow at 33:35:00 hrs.
   
  WARNING: FCV 2-FCV open but cannot deliver flow at 33:40:00 hrs.
   
  WARNING: FCV 2-FCV open but cannot deliver flow at 33:45:00 hrs.
   
  WARNING: FCV 2-FCV open but cannot deliver flow at 33:50:00 hrs.
   
  WARNING: FCV 2-FCV open but cannot deliver flow at 33:55:00 hrs.
   
  WARNING: FCV 2-FCV open but cannot deliver flow at 34:00:00 hrs.
   
  WARNING: FCV 2-FCV open but cannot deliver flow at 34:05:00 hrs.
   
  WARNING: FCV 2-FCV open but cannot deliver flow at 34:10:00 hrs.
   
  WARNING: FCV 2-FCV open but cannot deliver flow at 34:15:00 hrs.
   
  WARNING: FCV 2-FCV open but cannot deliver flow at 34:20:00 hrs.
   
  WARNING: FCV 2-FCV open but cannot deliver flow at 34:25:00 hrs.
   
  WARNING: FCV 2-FCV open but cannot deliver flow at 34:30:00 hrs.
   
  WARNING: FCV 2-FCV open but cannot deliver flow at 34:35:00 hrs.
   
  WARNING: FCV 2-FCV open but cannot deliver flow at 34:40:00 hrs.
   
  WARNING: FCV 2-FCV open but cannot deliver flow at 34:45:00 hrs.
   
  WARNING: FCV 2-FCV open but cannot deliver flow at 34:50:00 hrs.
   
  WARNING: FCV 2-FCV open but cannot deliver flow at 34:55:00 hrs.
   
  WARNING: FCV 2-FCV open but cannot deliver flow at 35:00:00 hrs.
   
  WARNING: FCV 2-FCV open but cannot deliver flow at 35:05:00 hrs.
   
  WARNING: FCV 2-FCV open but cannot deliver flow at 35:10:00 hrs.
   
  WARNING: FCV 2-FCV open but cannot deliver flow at 35:15:00 hrs.
   
  WARNING: FCV 2-FCV open but cannot deliver flow at 35:20:00 hrs.
   
  WARNING: FCV 2-FCV open but cannot deliver flow at 35:25:00 hrs.
   
  WARNING: FCV 2-FCV open but cannot deliver flow at 35:30:00 hrs.
   
  WARNING: FCV 2-FCV open but cannot deliver flow at 35:35:00 hrs.
   
  WARNING: FCV 2-FCV open but cannot deliver flow at 35:40:00 hrs.
   
  WARNING: FCV 2-FCV open but cannot deliver flow at 35:45:00 hrs.
   
  WARNING: FCV 2-FCV open but cannot deliver flow at 35:50:00 hrs.
   
  WARNING: FCV 2-FCV open but cannot deliver flow at 35:55:00 hrs.
   
  WARNING: FCV 2-FCV open but cannot deliver flow at 36:00:00 hrs.
   
  WARNING: FCV 2-FCV open but cannot deliver flow at 36:05:00 hrs.
   
  WARNING: FCV 2-FCV open but cannot deliver flow at 36:10:00 hrs.
   
  WARNING: FCV 2-FCV open but cannot deliver flow at 36:15:00 hrs.
   
  WARNING: FCV 2-FCV open but cannot deliver flow at 36:20:00 hrs.
   
  WARNING: FCV 2-FCV open but cannot deliver flow at 36:25:00 hrs.
   
  WARNING: FCV 2-FCV open but cannot deliver flow at 36:30:00 hrs.
   
  WARNING: FCV 2-FCV open but cannot deliver flow at 36:35:00 hrs.
   
  WARNING: FCV 2-FCV open but cannot deliver flow at 36:40:00 hrs.
   
  WARNING: FCV 2-FCV open but cannot deliver flow at 36:45:00 hrs.
   
  WARNING: FCV 2-FCV open but cannot deliver flow at 36:50:00 hrs.
   
  WARNING: FCV 2-FCV open but cannot deliver flow at 36:55:00 hrs.
   
  WARNING: FCV 2-FCV open but cannot deliver flow at 37:00:00 hrs.
   
  WARNING: FCV 2-FCV open but cannot deliver flow at 37:05:00 hrs.
   
  WARNING: FCV 2-FCV open but cannot deliver flow at 37:10:00 hrs.
   
  WARNING: FCV 2-FCV open but cannot deliver flow at 37:15:00 hrs.
   
  WARNING: FCV 2-FCV open but cannot deliver flow at 37:20:00 hrs.
   
  WARNING: FCV 2-FCV open but cannot deliver flow at 37:25:00 hrs.
   
  WARNING: FCV 2-FCV open but cannot deliver flow at 37:30:00 hrs.
   
  WARNING: FCV 2-FCV open but cannot deliver flow at 37:35:00 hrs.
   
  WARNING: FCV 2-FCV open but cannot deliver flow at 37:40:00 hrs.
   
  WARNING: FCV 2-FCV open but cannot deliver flow at 37:45:00 hrs.
   
  WARNING: FCV 2-FCV open but cannot deliver flow at 37:50:00 hrs.
   
  WARNING: FCV 2-FCV open but cannot deliver flow at 37:55:00 hrs.
   
  WARNING: FCV 2-FCV open but cannot deliver flow at 38:00:00 hrs.
   
  WARNING: FCV 2-FCV open but cannot deliver flow at 38:05:00 hrs.
   
  WARNING: FCV 2-FCV open but cannot deliver flow at 38:10:00 hrs.
   
  WARNING: FCV 2-FCV open but cannot deliver flow at 38:15:00 hrs.
   
  WARNING: FCV 2-FCV open but cannot deliver flow at 38:20:00 hrs.
   
  WARNING: FCV 2-FCV open but cannot deliver flow at 38:25:00 hrs.
   
  WARNING: FCV 2-FCV open but cannot deliver flow at 38:30:00 hrs.
   
  WARNING: FCV 2-FCV open but cannot deliver flow at 38:35:00 hrs.
   
  WARNING: FCV 2-FCV open but cannot deliver flow at 38:40:00 hrs.
   
  WARNING: FCV 2-FCV open but cannot deliver flow at 38:45:00 hrs.
   
  WARNING: FCV 2-FCV open but cannot deliver flow at 38:50:00 hrs.
   
  WARNING: FCV 2-FCV open but cannot deliver flow at 38:55:00 hrs.
   
  WARNING: FCV 2-FCV open but cannot deliver flow at 39:00:00 hrs.
   
  WARNING: FCV 2-FCV open but cannot deliver flow at 39:05:00 hrs.
   
  WARNING: FCV 2-FCV open but cannot deliver flow at 39:10:00 hrs.
   
  WARNING: FCV 2-FCV open but cannot deliver flow at 39:15:00 hrs.
   
  WARNING: FCV 2-FCV open but cannot deliver flow at 39:20:00 hrs.
   
  WARNING: FCV 2-FCV open but cannot deliver flow at 39:25:00 hrs.
   
  WARNING: FCV 2-FCV open but cannot deliver flow at 39:30:00 hrs.
   
  WARNING: FCV 2-FCV open but cannot deliver flow at 39:35:00 hrs.
   
  WARNING: FCV 2-FCV open but cannot deliver flow at 39:40:00 hrs.
   
  WARNING: FCV 2-FCV open but cannot deliver flow at 39:45:00 hrs.
   
  WARNING: FCV 2-FCV open but cannot deliver flow at 39:50:00 hrs.
   
  WARNING: FCV 2-FCV open but cannot deliver flow at 39:55:00 hrs.
   
  WARNING: FCV 2-FCV open but cannot deliver flow at 40:00:00 hrs.
   
  WARNING: FCV 2-FCV open but cannot deliver flow at 40:05:00 hrs.
   
  WARNING: FCV 2-FCV open but cannot deliver flow at 40:10:00 hrs.
   
  WARNING: FCV 2-FCV open but cannot deliver flow at 40:15:00 hrs.
   
  WARNING: FCV 2-FCV open but cannot deliver flow at 40:20:00 hrs.
   
  WARNING: FCV 2-FCV open but cannot deliver flow at 40:25:00 hrs.
   
  WARNING: FCV 2-FCV open but cannot deliver flow at 40:30:00 hrs.
   
  WARNING: FCV 2-FCV open but cannot deliver flow at 40:35:00 hrs.
   
  WARNING: FCV 2-FCV open but cannot deliver flow at 40:40:00 hrs.
   
  WARNING: FCV 2-FCV open but cannot deliver flow at 40:45:00 hrs.
   
  WARNING: FCV 2-FCV open but cannot deliver flow at 40:50:00 hrs.
   
  WARNING: FCV 2-FCV open but cannot deliver flow at 40:55:00 hrs.
   
  WARNING: FCV 2-FCV open but cannot deliver flow at 41:00:00 hrs.
   
  WARNING: FCV 2-FCV open but cannot deliver flow at 41:05:00 hrs.
   
  WARNING: FCV 2-FCV open but cannot deliver flow at 41:10:00 hrs.
   
  WARNING: FCV 2-FCV open but cannot deliver flow at 41:15:00 hrs.
   
  WARNING: FCV 2-FCV open but cannot deliver flow at 41:20:00 hrs.
   
  WARNING: FCV 2-FCV open but cannot deliver flow at 41:25:00 hrs.
   
  WARNING: FCV 2-FCV open but cannot deliver flow at 41:30:00 hrs.
   
  WARNING: FCV 2-FCV open but cannot deliver flow at 41:35:00 hrs.
   
  WARNING: FCV 2-FCV open but cannot deliver flow at 41:40:00 hrs.
   
  WARNING: FCV 2-FCV open but cannot deliver flow at 41:45:00 hrs.
   
  WARNING: FCV 2-FCV open but cannot deliver flow at 41:50:00 hrs.
   
  WARNING: FCV 2-FCV open but cannot deliver flow at 41:55:00 hrs.
   
  WARNING: FCV 2-FCV open but cannot deliver flow at 42:00:00 hrs.
   
  WARNING: FCV 2-FCV open but cannot deliver flow at 42:05:00 hrs.
   
  WARNING: FCV 2-FCV open but cannot deliver flow at 42:10:00 hrs.
   
  WARNING: FCV 2-FCV open but cannot deliver flow at 42:15:00 hrs.
   
  WARNING: FCV 2-FCV open but cannot deliver flow at 42:20:00 hrs.
   
  WARNING: FCV 2-FCV open but cannot deliver flow at 42:25:00 hrs.
   
  WARNING: FCV 2-FCV open but cannot deliver flow at 42:30:00 hrs.
   
  WARNING: FCV 2-FCV open but cannot deliver flow at 42:35:00 hrs.
   
  WARNING: FCV 2-FCV open but cannot deliver flow at 42:40:00 hrs.
   
  WARNING: FCV 2-FCV open but cannot deliver flow at 42:45:00 hrs.
   
  WARNING: FCV 2-FCV open but cannot deliver flow at 42:50:00 hrs.
   
  WARNING: FCV 2-FCV open but cannot deliver flow at 42:55:00 hrs.
   
  WARNING: FCV 2-FCV open but cannot deliver flow at 43:00:00 hrs.
   
  WARNING: FCV 2-FCV open but cannot deliver flow at 43:05:00 hrs.
   
  WARNING: FCV 2-FCV open but cannot deliver flow at 43:10:00 hrs.
   
  WARNING: FCV 2-FCV open but cannot deliver flow at 43:15:00 hrs.
   
  WARNING: FCV 2-FCV open but cannot deliver flow at 43:20:00 hrs.
   
  WARNING: FCV 2-FCV open but cannot deliver flow at 43:25:00 hrs.
   
  WARNING: FCV 2-FCV open but cannot deliver flow at 43:30:00 hrs.
   
  WARNING: FCV 2-FCV open but cannot deliver flow at 43:35:00 hrs.
   
  WARNING: FCV 2-FCV open but cannot deliver flow at 43:40:00 hrs.
   
  WARNING: FCV 2-FCV open but cannot deliver flow at 43:45:00 hrs.
   
  WARNING: FCV 2-FCV open but cannot deliver flow at 43:50:00 hrs.
   
  WARNING: FCV 2-FCV open but cannot deliver flow at 43:55:00 hrs.
   
  WARNING: FCV 2-FCV open but cannot deliver flow at 44:00:00 hrs.
   
  WARNING: FCV 2-FCV open but cannot deliver flow at 44:05:00 hrs.
   
  WARNING: FCV 2-FCV open but cannot deliver flow at 44:10:00 hrs.
   
  WARNING: FCV 2-FCV open but cannot deliver flow at 44:15:00 hrs.
   
  WARNING: FCV 2-FCV open but cannot deliver flow at 44:20:00 hrs.
   
  WARNING: FCV 2-FCV open but cannot deliver flow at 44:25:00 hrs.
   
  WARNING: FCV 2-FCV open but cannot deliver flow at 44:30:00 hrs.
   
  WARNING: FCV 2-FCV open but cannot deliver flow at 44:35:00 hrs.
   
  WARNING: FCV 2-FCV open but cannot deliver flow at 44:40:00 hrs.
   
  WARNING: FCV 2-FCV open but cannot deliver flow at 44:45:00 hrs.
   
  WARNING: FCV 2-FCV open but cannot deliver flow at 44:50:00 hrs.
   
  WARNING: FCV 2-FCV open but cannot deliver flow at 44:55:00 hrs.
   
  WARNING: FCV 2-FCV open but cannot deliver flow at 45:00:00 hrs.
   
  WARNING: FCV 2-FCV open but cannot deliver flow at 45:05:00 hrs.
   
  WARNING: FCV 2-FCV open but cannot deliver flow at 45:10:00 hrs.
   
  WARNING: FCV 2-FCV open but cannot deliver flow at 45:15:00 hrs.
   
  WARNING: FCV 2-FCV open but cannot deliver flow at 45:20:00 hrs.
   
  WARNING: FCV 2-FCV open but cannot deliver flow at 45:25:00 hrs.
   
  WARNING: FCV 2-FCV open but cannot deliver flow at 45:30:00 hrs.
   
  WARNING: FCV 2-FCV open but cannot deliver flow at 45:35:00 hrs.
   
  WARNING: FCV 2-FCV open but cannot deliver flow at 45:40:00 hrs.
   
  WARNING: FCV 2-FCV open but cannot deliver flow at 45:45:00 hrs.
   
  WARNING: FCV 2-FCV open but cannot deliver flow at 45:50:00 hrs.
   
  WARNING: FCV 2-FCV open but cannot deliver flow at 45:55:00 hrs.
   
  WARNING: FCV 2-FCV open but cannot deliver flow at 46:00:00 hrs.
   
  WARNING: FCV 2-FCV open but cannot deliver flow at 46:05:00 hrs.
   
  WARNING: FCV 2-FCV open but cannot deliver flow at 46:10:00 hrs.
   
  WARNING: FCV 2-FCV open but cannot deliver flow at 46:15:00 hrs.
   
  WARNING: FCV 2-FCV open but cannot deliver flow at 46:20:00 hrs.
   
  WARNING: FCV 2-FCV open but cannot deliver flow at 46:25:00 hrs.
   
  WARNING: FCV 2-FCV open but cannot deliver flow at 46:30:00 hrs.
   
  WARNING: FCV 2-FCV open but cannot deliver flow at 46:35:00 hrs.
   
  WARNING: FCV 2-FCV open but cannot deliver flow at 46:40:00 hrs.
   
  WARNING: FCV 2-FCV open but cannot deliver flow at 46:45:00 hrs.
   
  WARNING: FCV 2-FCV open but cannot deliver flow at 46:50:00 hrs.
   
  WARNING: FCV 2-FCV open but cannot deliver flow at 46:55:00 hrs.
   
  WARNING: FCV 2-FCV open but cannot deliver flow at 47:00:00 hrs.
   
  WARNING: FCV 2-FCV open but cannot deliver flow at 47:05:00 hrs.
   
  WARNING: FCV 2-FCV open but cannot deliver flow at 47:10:00 hrs.
   
  WARNING: FCV 2-FCV open but cannot deliver flow at 47:15:00 hrs.
   
  WARNING: FCV 2-FCV open but cannot deliver flow at 47:20:00 hrs.
   
  WARNING: FCV 2-FCV open but cannot deliver flow at 47:25:00 hrs.
   
  WARNING: FCV 2-FCV open but cannot deliver flow at 47:30:00 hrs.
   
  WARNING: FCV 2-FCV open but cannot deliver flow at 47:35:00 hrs.
   
  WARNING: FCV 2-FCV open but cannot deliver flow at 47:40:00 hrs.
   
  WARNING: FCV 2-FCV open but cannot deliver flow at 47:45:00 hrs.
   
  WARNING: FCV 2-FCV open but cannot deliver flow at 47:50:00 hrs.
   
  WARNING: FCV 2-FCV open but cannot deliver flow at 47:55:00 hrs.
   
  WARNING: FCV 2-FCV open but cannot deliver flow at 48:00:00 hrs.
   
  WARNING: FCV 2-FCV open but cannot deliver flow at 48:05:00 hrs.
   
  WARNING: FCV 2-FCV open but cannot deliver flow at 48:10:00 hrs.
   
  WARNING: FCV 2-FCV open but cannot deliver flow at 48:15:00 hrs.
   
  WARNING: FCV 2-FCV open but cannot deliver flow at 48:20:00 hrs.
   
  WARNING: FCV 2-FCV open but cannot deliver flow at 48:25:00 hrs.
   
  WARNING: FCV 2-FCV open but cannot deliver flow at 48:30:00 hrs.
   
  WARNING: FCV 2-FCV open but cannot deliver flow at 48:35:00 hrs.
   
  WARNING: FCV 2-FCV open but cannot deliver flow at 48:40:00 hrs.
   
  WARNING: FCV 2-FCV open but cannot deliver flow at 48:45:00 hrs.
   
  WARNING: FCV 2-FCV open but cannot deliver flow at 48:50:00 hrs.
   
  WARNING: FCV 2-FCV open but cannot deliver flow at 48:55:00 hrs.
   
  WARNING: FCV 2-FCV open but cannot deliver flow at 49:00:00 hrs.
   
  WARNING: FCV 2-FCV open but cannot deliver flow at 49:05:00 hrs.
   
  WARNING: FCV 2-FCV open but cannot deliver flow at 49:10:00 hrs.
   
  WARNING: FCV 2-FCV open but cannot deliver flow at 49:15:00 hrs.
   
  WARNING: FCV 2-FCV open but cannot deliver flow at 49:20:00 hrs.
   
  WARNING: FCV 2-FCV open but cannot deliver flow at 49:25:00 hrs.
   
  WARNING: FCV 2-FCV open but cannot deliver flow at 49:30:00 hrs.
   
  WARNING: FCV 2-FCV open but cannot deliver flow at 49:35:00 hrs.
   
  WARNING: FCV 2-FCV open but cannot deliver flow at 49:40:00 hrs.
   
  WARNING: FCV 2-FCV open but cannot deliver flow at 49:45:00 hrs.
   
  WARNING: FCV 2-FCV open but cannot deliver flow at 49:50:00 hrs.
   
  WARNING: FCV 2-FCV open but cannot deliver flow at 49:55:00 hrs.
   
  WARNING: FCV 2-FCV open but cannot deliver flow at 50:00:00 hrs.
   
  WARNING: FCV 2-FCV open but cannot deliver flow at 50:05:00 hrs.
   
  WARNING: FCV 2-FCV open but cannot deliver flow at 50:10:00 hrs.
   
  WARNING: FCV 2-FCV open but cannot deliver flow at 50:15:00 hrs.
   
  WARNING: FCV 2-FCV open but cannot deliver flow at 50:20:00 hrs.
   
  WARNING: FCV 2-FCV open but cannot deliver flow at 50:25:00 hrs.
   
  WARNING: FCV 2-FCV open but cannot deliver flow at 50:30:00 hrs.
   
  WARNING: FCV 2-FCV open but cannot deliver flow at 50:35:00 hrs.
   
  WARNING: FCV 2-FCV open but cannot deliver flow at 50:40:00 hrs.
   
  WARNING: FCV 2-FCV open but cannot deliver flow at 50:45:00 hrs.
   
  WARNING: FCV 2-FCV open but cannot deliver flow at 50:50:00 hrs.
   
  WARNING: FCV 2-FCV open but cannot deliver flow at 50:55:00 hrs.
   
  WARNING: FCV 2-FCV open but cannot deliver flow at 51:00:00 hrs.
   
  WARNING: FCV 2-FCV open but cannot deliver flow at 51:05:00 hrs.
   
  WARNING: FCV 2-FCV open but cannot deliver flow at 51:10:00 hrs.
   
  WARNING: FCV 2-FCV open but cannot deliver flow at 51:15:00 hrs.
   
  WARNING: FCV 2-FCV open but cannot deliver flow at 51:20:00 hrs.
   
  WARNING: FCV 2-FCV open but cannot deliver flow at 51:25:00 hrs.
   
  WARNING: FCV 2-FCV open but cannot deliver flow at 51:30:00 hrs.
   
  WARNING: FCV 2-FCV open but cannot deliver flow at 51:35:00 hrs.
   
  WARNING: FCV 2-FCV open but cannot deliver flow at 51:40:00 hrs.
   
  WARNING: FCV 2-FCV open but cannot deliver flow at 51:45:00 hrs.
   
  WARNING: FCV 2-FCV open but cannot deliver flow at 51:50:00 hrs.
   
  WARNING: FCV 2-FCV open but cannot deliver flow at 51:55:00 hrs.
   
  WARNING: FCV 2-FCV open but cannot deliver flow at 52:00:00 hrs.
   
  WARNING: FCV 2-FCV open but cannot deliver flow at 52:05:00 hrs.
   
  WARNING: FCV 2-FCV open but cannot deliver flow at 52:10:00 hrs.
   
  WARNING: FCV 2-FCV open but cannot deliver flow at 52:15:00 hrs.
   
  WARNING: FCV 2-FCV open but cannot deliver flow at 52:20:00 hrs.
   
  WARNING: FCV 2-FCV open but cannot deliver flow at 52:25:00 hrs.
   
  WARNING: FCV 2-FCV open but cannot deliver flow at 52:30:00 hrs.
   
  WARNING: FCV 2-FCV open but cannot deliver flow at 52:35:00 hrs.
   
  WARNING: FCV 2-FCV open but cannot deliver flow at 52:40:00 hrs.
   
  WARNING: FCV 2-FCV open but cannot deliver flow at 52:45:00 hrs.
   
  WARNING: FCV 2-FCV open but cannot deliver flow at 52:50:00 hrs.
   
  WARNING: FCV 2-FCV open but cannot deliver flow at 52:55:00 hrs.
   
  WARNING: FCV 2-FCV open but cannot deliver flow at 53:00:00 hrs.
   
  WARNING: FCV 2-FCV open but cannot deliver flow at 53:05:00 hrs.
   
  WARNING: FCV 2-FCV open but cannot deliver flow at 53:10:00 hrs.
   
  WARNING: FCV 2-FCV open but cannot deliver flow at 53:15:00 hrs.
   
  WARNING: FCV 2-FCV open but cannot deliver flow at 53:20:00 hrs.
   
  WARNING: FCV 2-FCV open but cannot deliver flow at 53:25:00 hrs.
   
  WARNING: FCV 2-FCV open but cannot deliver flow at 53:30:00 hrs.
   
  WARNING: FCV 2-FCV open but cannot deliver flow at 53:35:00 hrs.
   
  WARNING: FCV 2-FCV open but cannot deliver flow at 53:40:00 hrs.
   
  WARNING: FCV 2-FCV open but cannot deliver flow at 53:45:00 hrs.
   
  WARNING: FCV 2-FCV open but cannot deliver flow at 53:50:00 hrs.
   
  WARNING: FCV 2-FCV open but cannot deliver flow at 53:55:00 hrs.
   
  WARNING: FCV 2-FCV open but cannot deliver flow at 54:00:00 hrs.
   
  WARNING: FCV 2-FCV open but cannot deliver flow at 54:05:00 hrs.
   
  WARNING: FCV 2-FCV open but cannot deliver flow at 54:10:00 hrs.
   
  WARNING: FCV 2-FCV open but cannot deliver flow at 54:15:00 hrs.
   
  WARNING: FCV 2-FCV open but cannot deliver flow at 54:20:00 hrs.
   
  WARNING: FCV 2-FCV open but cannot deliver flow at 54:25:00 hrs.
   
  WARNING: FCV 2-FCV open but cannot deliver flow at 54:30:00 hrs.
   
  WARNING: FCV 2-FCV open but cannot deliver flow at 54:35:00 hrs.
   
  WARNING: FCV 2-FCV open but cannot deliver flow at 54:40:00 hrs.
   
  WARNING: FCV 2-FCV open but cannot deliver flow at 54:45:00 hrs.
   
  WARNING: FCV 2-FCV open but cannot deliver flow at 54:50:00 hrs.
   
  WARNING: FCV 2-FCV open but cannot deliver flow at 54:55:00 hrs.
   
  WARNING: FCV 2-FCV open but cannot deliver flow at 55:00:00 hrs.
   
  WARNING: FCV 2-FCV open but cannot deliver flow at 55:05:00 hrs.
   
  WARNING: FCV 2-FCV open but cannot deliver flow at 55:10:00 hrs.
   
  WARNING: FCV 2-FCV open but cannot deliver flow at 55:15:00 hrs.
   
  WARNING: FCV 2-FCV open but cannot deliver flow at 55:20:00 hrs.
   
  WARNING: FCV 2-FCV open but cannot deliver flow at 55:25:00 hrs.
   
  WARNING: FCV 2-FCV open but cannot deliver flow at 55:30:00 hrs.
   
  WARNING: FCV 2-FCV open but cannot deliver flow at 55:35:00 hrs.
   
  WARNING: FCV 2-FCV open but cannot deliver flow at 55:40:00 hrs.
   
  WARNING: FCV 2-FCV open but cannot deliver flow at 55:45:00 hrs.
   
  WARNING: FCV 2-FCV open but cannot deliver flow at 55:50:00 hrs.
   
  WARNING: FCV 2-FCV open but cannot deliver flow at 55:55:00 hrs.
   
  WARNING: FCV 2-FCV open but cannot deliver flow at 56:00:00 hrs.
   
  WARNING: FCV 2-FCV open but cannot deliver flow at 56:05:00 hrs.
   
  WARNING: FCV 2-FCV open but cannot deliver flow at 56:10:00 hrs.
   
  WARNING: FCV 2-FCV open but cannot deliver flow at 56:15:00 hrs.
   
  WARNING: FCV 2-FCV open but cannot deliver flow at 56:20:00 hrs.
   
  WARNING: FCV 2-FCV open but cannot deliver flow at 56:25:00 hrs.
   
  WARNING: FCV 2-FCV open but cannot deliver flow at 56:30:00 hrs.
   
  WARNING: FCV 2-FCV open but cannot deliver flow at 56:35:00 hrs.
   
  WARNING: FCV 2-FCV open but cannot deliver flow at 56:40:00 hrs.
   
  WARNING: FCV 2-FCV open but cannot deliver flow at 56:45:00 hrs.
   
  WARNING: FCV 2-FCV open but cannot deliver flow at 56:50:00 hrs.
   
  WARNING: FCV 2-FCV open but cannot deliver flow at 56:55:00 hrs.
   
  WARNING: FCV 2-FCV open but cannot deliver flow at 57:00:00 hrs.
   
  WARNING: FCV 2-FCV open but cannot deliver flow at 57:05:00 hrs.
   
  WARNING: FCV 2-FCV open but cannot deliver flow at 57:10:00 hrs.
   
  WARNING: FCV 2-FCV open but cannot deliver flow at 57:15:00 hrs.
   
  WARNING: FCV 2-FCV open but cannot deliver flow at 57:20:00 hrs.
   
  WARNING: FCV 2-FCV open but cannot deliver flow at 57:25:00 hrs.
   
  WARNING: FCV 2-FCV open but cannot deliver flow at 57:30:00 hrs.
   
  WARNING: FCV 2-FCV open but cannot deliver flow at 57:35:00 hrs.
   
  WARNING: FCV 2-FCV open but cannot deliver flow at 57:40:00 hrs.
   
  WARNING: FCV 2-FCV open but cannot deliver flow at 57:45:00 hrs.
   
  WARNING: FCV 2-FCV open but cannot deliver flow at 57:50:00 hrs.
   
  WARNING: FCV 2-FCV open but cannot deliver flow at 57:55:00 hrs.
   
  WARNING: FCV 2-FCV open but cannot deliver flow at 58:00:00 hrs.
   
  WARNING: FCV 2-FCV open but cannot deliver flow at 58:05:00 hrs.
   
  WARNING: FCV 2-FCV open but cannot deliver flow at 58:10:00 hrs.
   
  WARNING: FCV 2-FCV open but cannot deliver flow at 58:15:00 hrs.
   
  WARNING: FCV 2-FCV open but cannot deliver flow at 58:20:00 hrs.
   
  WARNING: FCV 2-FCV open but cannot deliver flow at 58:25:00 hrs.
   
  WARNING: FCV 2-FCV open but cannot deliver flow at 58:30:00 hrs.
   
  WARNING: FCV 2-FCV open but cannot deliver flow at 58:35:00 hrs.
   
  WARNING: FCV 2-FCV open but cannot deliver flow at 58:40:00 hrs.
   
  WARNING: FCV 2-FCV open but cannot deliver flow at 58:45:00 hrs.
   
  WARNING: FCV 2-FCV open but cannot deliver flow at 58:50:00 hrs.
   
  WARNING: FCV 2-FCV open but cannot deliver flow at 58:55:00 hrs.
   
  WARNING: FCV 2-FCV open but cannot deliver flow at 59:00:00 hrs.
   
  WARNING: FCV 2-FCV open but cannot deliver flow at 59:05:00 hrs.
   
  WARNING: FCV 2-FCV open but cannot deliver flow at 59:10:00 hrs.
   
  WARNING: FCV 2-FCV open but cannot deliver flow at 59:15:00 hrs.
   
  WARNING: FCV 2-FCV open but cannot deliver flow at 59:20:00 hrs.
   
  WARNING: FCV 2-FCV open but cannot deliver flow at 59:25:00 hrs.
   
  WARNING: FCV 2-FCV open but cannot deliver flow at 59:30:00 hrs.
   
  WARNING: FCV 2-FCV open but cannot deliver flow at 59:35:00 hrs.
   
  WARNING: FCV 2-FCV open but cannot deliver flow at 59:40:00 hrs.
   
  WARNING: FCV 2-FCV open but cannot deliver flow at 59:45:00 hrs.
   
  WARNING: FCV 2-FCV open but cannot deliver flow at 59:50:00 hrs.
   
  WARNING: FCV 2-FCV open but cannot deliver flow at 59:55:00 hrs.
   
  WARNING: FCV 2-FCV open but cannot deliver flow at 60:00:00 hrs.
   
  WARNING: FCV 2-FCV open but cannot deliver flow at 60:05:00 hrs.
   
  WARNING: FCV 2-FCV open but cannot deliver flow at 60:10:00 hrs.
   
  WARNING: FCV 2-FCV open but cannot deliver flow at 60:15:00 hrs.
   
  WARNING: FCV 2-FCV open but cannot deliver flow at 60:20:00 hrs.
   
  WARNING: FCV 2-FCV open but cannot deliver flow at 60:25:00 hrs.
   
  WARNING: FCV 2-FCV open but cannot deliver flow at 60:30:00 hrs.
   
  WARNING: FCV 2-FCV open but cannot deliver flow at 60:35:00 hrs.
   
  WARNING: FCV 2-FCV open but cannot deliver flow at 60:40:00 hrs.
   
  WARNING: FCV 2-FCV open but cannot deliver flow at 60:45:00 hrs.
   
  WARNING: FCV 2-FCV open but cannot deliver flow at 60:50:00 hrs.
   
  WARNING: FCV 2-FCV open but cannot deliver flow at 60:55:00 hrs.
   
  WARNING: FCV 2-FCV open but cannot deliver flow at 61:00:00 hrs.
   
  WARNING: FCV 2-FCV open but cannot deliver flow at 61:05:00 hrs.
   
  WARNING: FCV 2-FCV open but cannot deliver flow at 61:10:00 hrs.
   
  WARNING: FCV 2-FCV open but cannot deliver flow at 61:15:00 hrs.
   
  WARNING: FCV 2-FCV open but cannot deliver flow at 61:20:00 hrs.
   
  WARNING: FCV 2-FCV open but cannot deliver flow at 61:25:00 hrs.
   
  WARNING: FCV 2-FCV open but cannot deliver flow at 61:30:00 hrs.
   
  WARNING: FCV 2-FCV open but cannot deliver flow at 61:35:00 hrs.
   
  WARNING: FCV 2-FCV open but cannot deliver flow at 61:40:00 hrs.
   
  WARNING: FCV 2-FCV open but cannot deliver flow at 61:45:00 hrs.
   
  WARNING: FCV 2-FCV open but cannot deliver flow at 61:50:00 hrs.
   
  WARNING: FCV 2-FCV open but cannot deliver flow at 61:55:00 hrs.
   
  WARNING: FCV 2-FCV open but cannot deliver flow at 62:00:00 hrs.
   
  WARNING: FCV 2-FCV open but cannot deliver flow at 62:05:00 hrs.
   
  WARNING: FCV 2-FCV open but cannot deliver flow at 62:10:00 hrs.
   
  WARNING: FCV 2-FCV open but cannot deliver flow at 62:15:00 hrs.
   
  WARNING: FCV 2-FCV open but cannot deliver flow at 62:20:00 hrs.
   
  WARNING: FCV 2-FCV open but cannot deliver flow at 62:25:00 hrs.
   
  WARNING: FCV 2-FCV open but cannot deliver flow at 62:30:00 hrs.
   
  WARNING: FCV 2-FCV open but cannot deliver flow at 62:35:00 hrs.
   
  WARNING: FCV 2-FCV open but cannot deliver flow at 62:40:00 hrs.
   
  WARNING: FCV 2-FCV open but cannot deliver flow at 62:45:00 hrs.
   
  WARNING: FCV 2-FCV open but cannot deliver flow at 62:50:00 hrs.
   
  WARNING: FCV 2-FCV open but cannot deliver flow at 62:55:00 hrs.
   
  WARNING: FCV 2-FCV open but cannot deliver flow at 63:00:00 hrs.
   
  WARNING: FCV 2-FCV open but cannot deliver flow at 63:05:00 hrs.
   
  WARNING: FCV 2-FCV open but cannot deliver flow at 63:10:00 hrs.
   
  WARNING: FCV 2-FCV open but cannot deliver flow at 63:15:00 hrs.
   
  WARNING: FCV 2-FCV open but cannot deliver flow at 63:20:00 hrs.
   
  WARNING: FCV 2-FCV open but cannot deliver flow at 63:25:00 hrs.
   
  WARNING: FCV 2-FCV open but cannot deliver flow at 63:30:00 hrs.
   
  WARNING: FCV 2-FCV open but cannot deliver flow at 63:35:00 hrs.
   
  WARNING: FCV 2-FCV open but cannot deliver flow at 63:40:00 hrs.
   
  WARNING: FCV 2-FCV open but cannot deliver flow at 63:45:00 hrs.
   
  WARNING: FCV 2-FCV open but cannot deliver flow at 63:50:00 hrs.
   
  WARNING: FCV 2-FCV open but cannot deliver flow at 63:55:00 hrs.
   
  WARNING: FCV 2-FCV open but cannot deliver flow at 64:00:00 hrs.
   
  WARNING: FCV 2-FCV open but cannot deliver flow at 64:05:00 hrs.
   
  WARNING: FCV 2-FCV open but cannot deliver flow at 64:10:00 hrs.
   
  WARNING: FCV 2-FCV open but cannot deliver flow at 64:15:00 hrs.
   
  WARNING: FCV 2-FCV open but cannot deliver flow at 64:20:00 hrs.
   
  WARNING: FCV 2-FCV open but cannot deliver flow at 64:25:00 hrs.
   
  WARNING: FCV 2-FCV open but cannot deliver flow at 64:30:00 hrs.
   
  WARNING: FCV 2-FCV open but cannot deliver flow at 64:35:00 hrs.
   
  WARNING: FCV 2-FCV open but cannot deliver flow at 64:40:00 hrs.
   
  WARNING: FCV 2-FCV open but cannot deliver flow at 64:45:00 hrs.
   
  WARNING: FCV 2-FCV open but cannot deliver flow at 64:50:00 hrs.
   
  WARNING: FCV 2-FCV open but cannot deliver flow at 64:55:00 hrs.
   
  WARNING: FCV 2-FCV open but cannot deliver flow at 65:00:00 hrs.
   
  WARNING: FCV 2-FCV open but cannot deliver flow at 65:05:00 hrs.
   
  WARNING: FCV 2-FCV open but cannot deliver flow at 65:10:00 hrs.
   
  WARNING: FCV 2-FCV open but cannot deliver flow at 65:15:00 hrs.
   
  WARNING: FCV 2-FCV open but cannot deliver flow at 65:20:00 hrs.
   
  WARNING: FCV 2-FCV open but cannot deliver flow at 65:25:00 hrs.
   
  WARNING: FCV 2-FCV open but cannot deliver flow at 65:30:00 hrs.
   
  WARNING: FCV 2-FCV open but cannot deliver flow at 65:35:00 hrs.
   
  WARNING: FCV 2-FCV open but cannot deliver flow at 65:40:00 hrs.
   
  WARNING: FCV 2-FCV open but cannot deliver flow at 65:45:00 hrs.
   
  WARNING: FCV 2-FCV open but cannot deliver flow at 65:50:00 hrs.
   
  WARNING: FCV 2-FCV open but cannot deliver flow at 65:55:00 hrs.
   
  WARNING: FCV 2-FCV open but cannot deliver flow at 66:00:00 hrs.
   
  WARNING: FCV 2-FCV open but cannot deliver flow at 66:05:00 hrs.
   
  WARNING: FCV 2-FCV open but cannot deliver flow at 66:10:00 hrs.
   
  WARNING: FCV 2-FCV open but cannot deliver flow at 66:15:00 hrs.
   
  WARNING: FCV 2-FCV open but cannot deliver flow at 66:20:00 hrs.
   
  WARNING: FCV 2-FCV open but cannot deliver flow at 66:25:00 hrs.
   
  WARNING: FCV 2-FCV open but cannot deliver flow at 66:30:00 hrs.
   
  WARNING: FCV 2-FCV open but cannot deliver flow at 66:35:00 hrs.
   
  WARNING: FCV 2-FCV open but cannot deliver flow at 66:40:00 hrs.
   
  WARNING: FCV 2-FCV open but cannot deliver flow at 66:45:00 hrs.
   
  WARNING: FCV 2-FCV open but cannot deliver flow at 66:50:00 hrs.
   
  WARNING: FCV 2-FCV open but cannot deliver flow at 66:55:00 hrs.
   
  WARNING: FCV 2-FCV open but cannot deliver flow at 67:00:00 hrs.
   
  WARNING: FCV 2-FCV open but cannot deliver flow at 67:05:00 hrs.
   
  WARNING: FCV 2-FCV open but cannot deliver flow at 67:10:00 hrs.
   
  WARNING: FCV 2-FCV open but cannot deliver flow at 67:15:00 hrs.
   
  WARNING: FCV 2-FCV open but cannot deliver flow at 67:20:00 hrs.
   
  WARNING: FCV 2-FCV open but cannot deliver flow at 67:25:00 hrs.
   
  WARNING: FCV 2-FCV open but cannot deliver flow at 67:30:00 hrs.
   
  WARNING: FCV 2-FCV open but cannot deliver flow at 67:35:00 hrs.
   
  WARNING: FCV 2-FCV open but cannot deliver flow at 67:40:00 hrs.
   
  WARNING: FCV 2-FCV open but cannot deliver flow at 67:45:00 hrs.
   
  WARNING: FCV 2-FCV open but cannot deliver flow at 67:50:00 hrs.
   
  WARNING: FCV 2-FCV open but cannot deliver flow at 67:55:00 hrs.
   
  WARNING: FCV 2-FCV open but cannot deliver flow at 68:00:00 hrs.
   
  WARNING: FCV 2-FCV open but cannot deliver flow at 68:05:00 hrs.
   
  WARNING: FCV 2-FCV open but cannot deliver flow at 68:10:00 hrs.
   
  WARNING: FCV 2-FCV open but cannot deliver flow at 68:15:00 hrs.
   
  WARNING: FCV 2-FCV open but cannot deliver flow at 68:20:00 hrs.
   
  WARNING: FCV 2-FCV open but cannot deliver flow at 68:25:00 hrs.
   
  WARNING: FCV 2-FCV open but cannot deliver flow at 68:30:00 hrs.
   
  WARNING: FCV 2-FCV open but cannot deliver flow at 68:35:00 hrs.
   
  WARNING: FCV 2-FCV open but cannot deliver flow at 68:40:00 hrs.
   
  WARNING: FCV 2-FCV open but cannot deliver flow at 68:45:00 hrs.
   
  WARNING: FCV 2-FCV open but cannot deliver flow at 68:50:00 hrs.
   
  WARNING: FCV 2-FCV open but cannot deliver flow at 68:55:00 hrs.
   
  WARNING: FCV 2-FCV open but cannot deliver flow at 69:00:00 hrs.
   
  WARNING: FCV 2-FCV open but cannot deliver flow at 69:05:00 hrs.
   
  WARNING: FCV 2-FCV open but cannot deliver flow at 69:10:00 hrs.
   
  WARNING: FCV 2-FCV open but cannot deliver flow at 69:15:00 hrs.
   
  WARNING: FCV 2-FCV open but cannot deliver flow at 69:20:00 hrs.
   
  WARNING: FCV 2-FCV open but cannot deliver flow at 69:25:00 hrs.
   
  WARNING: FCV 2-FCV open but cannot deliver flow at 69:30:00 hrs.
   
  WARNING: FCV 2-FCV open but cannot deliver flow at 69:35:00 hrs.
   
  WARNING: FCV 2-FCV open but cannot deliver flow at 69:40:00 hrs.
   
  WARNING: FCV 2-FCV open but cannot deliver flow at 69:45:00 hrs.
   
  WARNING: FCV 2-FCV open but cannot deliver flow at 69:50:00 hrs.
   
  WARNING: FCV 2-FCV open but cannot deliver flow at 69:55:00 hrs.
   
  WARNING: FCV 2-FCV open but cannot deliver flow at 70:00:00 hrs.
   
  WARNING: FCV 2-FCV open but cannot deliver flow at 70:05:00 hrs.
   
  WARNING: FCV 2-FCV open but cannot deliver flow at 70:10:00 hrs.
   
  WARNING: FCV 2-FCV open but cannot deliver flow at 70:15:00 hrs.
   
  WARNING: FCV 2-FCV open but cannot deliver flow at 70:20:00 hrs.
   
  WARNING: FCV 2-FCV open but cannot deliver flow at 70:25:00 hrs.
   
  WARNING: FCV 2-FCV open but cannot deliver flow at 70:30:00 hrs.
   
  WARNING: FCV 2-FCV open but cannot deliver flow at 70:35:00 hrs.
   
  WARNING: FCV 2-FCV open but cannot deliver flow at 70:40:00 hrs.
   
  WARNING: FCV 2-FCV open but cannot deliver flow at 70:45:00 hrs.
   
  WARNING: FCV 2-FCV open but cannot deliver flow at 70:50:00 hrs.
   
  WARNING: FCV 2-FCV open but cannot deliver flow at 70:55:00 hrs.
   
  WARNING: FCV 2-FCV open but cannot deliver flow at 71:00:00 hrs.
   
  WARNING: FCV 2-FCV open but cannot deliver flow at 71:05:00 hrs.
   
  WARNING: FCV 2-FCV open but cannot deliver flow at 71:10:00 hrs.
   
  WARNING: FCV 2-FCV open but cannot deliver flow at 71:15:00 hrs.
   
  WARNING: FCV 2-FCV open but cannot deliver flow at 71:20:00 hrs.
   
  WARNING: FCV 2-FCV open but cannot deliver flow at 71:25:00 hrs.
   
  WARNING: FCV 2-FCV open but cannot deliver flow at 71:30:00 hrs.
   
  WARNING: FCV 2-FCV open but cannot deliver flow at 71:35:00 hrs.
   
  WARNING: FCV 2-FCV open but cannot deliver flow at 71:40:00 hrs.
   
  WARNING: FCV 2-FCV open but cannot deliver flow at 71:45:00 hrs.
   
  WARNING: FCV 2-FCV open but cannot deliver flow at 71:50:00 hrs.
   
  WARNING: FCV 2-FCV open but cannot deliver flow at 71:55:00 hrs.
   
  WARNING: FCV 2-FCV open but cannot deliver flow at 72:00:00 hrs.
   
  WARNING: FCV 2-FCV open but cannot deliver flow at 72:05:00 hrs.
   
  WARNING: FCV 2-FCV open but cannot deliver flow at 72:10:00 hrs.
   
  WARNING: FCV 2-FCV open but cannot deliver flow at 72:15:00 hrs.
   
  WARNING: FCV 2-FCV open but cannot deliver flow at 72:20:00 hrs.
   
  WARNING: FCV 2-FCV open but cannot deliver flow at 72:25:00 hrs.
   
  WARNING: FCV 2-FCV open but cannot deliver flow at 72:30:00 hrs.
   
  WARNING: FCV 2-FCV open but cannot deliver flow at 72:35:00 hrs.
   
  WARNING: FCV 2-FCV open but cannot deliver flow at 72:40:00 hrs.
   
  WARNING: FCV 2-FCV open but cannot deliver flow at 72:45:00 hrs.
   
  WARNING: FCV 2-FCV open but cannot deliver flow at 72:50:00 hrs.
   
  WARNING: FCV 2-FCV open but cannot deliver flow at 72:55:00 hrs.
   
  WARNING: FCV 2-FCV open but cannot deliver flow at 73:00:00 hrs.
   
  WARNING: FCV 2-FCV open but cannot deliver flow at 73:05:00 hrs.
   
  WARNING: FCV 2-FCV open but cannot deliver flow at 73:10:00 hrs.
   
  WARNING: FCV 2-FCV open but cannot deliver flow at 73:15:00 hrs.
   
  WARNING: FCV 2-FCV open but cannot deliver flow at 73:20:00 hrs.
   
  WARNING: FCV 2-FCV open but cannot deliver flow at 73:25:00 hrs.
   
  WARNING: FCV 2-FCV open but cannot deliver flow at 73:30:00 hrs.
   
  WARNING: FCV 2-FCV open but cannot deliver flow at 73:35:00 hrs.
   
  WARNING: FCV 2-FCV open but cannot deliver flow at 73:40:00 hrs.
   
  WARNING: FCV 2-FCV open but cannot deliver flow at 73:45:00 hrs.
   
  WARNING: FCV 2-FCV open but cannot deliver flow at 73:50:00 hrs.
   
  WARNING: FCV 2-FCV open but cannot deliver flow at 73:55:00 hrs.
   
  WARNING: FCV 2-FCV open but cannot deliver flow at 74:00:00 hrs.
   
  WARNING: FCV 2-FCV open but cannot deliver flow at 74:05:00 hrs.
   
  WARNING: FCV 2-FCV open but cannot deliver flow at 74:10:00 hrs.
   
  WARNING: FCV 2-FCV open but cannot deliver flow at 74:15:00 hrs.
   
  WARNING: FCV 2-FCV open but cannot deliver flow at 74:20:00 hrs.
   
  WARNING: FCV 2-FCV open but cannot deliver flow at 74:25:00 hrs.
   
  WARNING: FCV 2-FCV open but cannot deliver flow at 74:30:00 hrs.
   
  WARNING: FCV 2-FCV open but cannot deliver flow at 74:35:00 hrs.
   
  WARNING: FCV 2-FCV open but cannot deliver flow at 74:40:00 hrs.
   
  WARNING: FCV 2-FCV open but cannot deliver flow at 74:45:00 hrs.
   
  WARNING: FCV 2-FCV open but cannot deliver flow at 74:50:00 hrs.
   
  WARNING: FCV 2-FCV open but cannot deliver flow at 74:55:00 hrs.
   
  WARNING: FCV 2-FCV open but cannot deliver flow at 75:00:00 hrs.
   
  WARNING: FCV 2-FCV open but cannot deliver flow at 75:05:00 hrs.
   
  WARNING: FCV 2-FCV open but cannot deliver flow at 75:10:00 hrs.
   
  WARNING: FCV 2-FCV open but cannot deliver flow at 75:15:00 hrs.
   
  WARNING: FCV 2-FCV open but cannot deliver flow at 75:20:00 hrs.
   
  WARNING: FCV 2-FCV open but cannot deliver flow at 75:25:00 hrs.
   
  WARNING: FCV 2-FCV open but cannot deliver flow at 75:30:00 hrs.
   
  WARNING: FCV 2-FCV open but cannot deliver flow at 75:35:00 hrs.
   
  WARNING: FCV 2-FCV open but cannot deliver flow at 75:40:00 hrs.
   
  WARNING: FCV 2-FCV open but cannot deliver flow at 75:45:00 hrs.
   
  WARNING: FCV 2-FCV open but cannot deliver flow at 75:50:00 hrs.
   
  WARNING: FCV 2-FCV open but cannot deliver flow at 75:55:00 hrs.
   
  WARNING: FCV 2-FCV open but cannot deliver flow at 76:00:00 hrs.
   
  WARNING: FCV 2-FCV open but cannot deliver flow at 76:05:00 hrs.
   
  WARNING: FCV 2-FCV open but cannot deliver flow at 76:10:00 hrs.
   
  WARNING: FCV 2-FCV open but cannot deliver flow at 76:15:00 hrs.
   
  WARNING: FCV 2-FCV open but cannot deliver flow at 76:20:00 hrs.
   
  WARNING: FCV 2-FCV open but cannot deliver flow at 76:25:00 hrs.
   
  WARNING: FCV 2-FCV open but cannot deliver flow at 76:30:00 hrs.
   
  WARNING: FCV 2-FCV open but cannot deliver flow at 76:35:00 hrs.
   
  WARNING: FCV 2-FCV open but cannot deliver flow at 76:40:00 hrs.
   
  WARNING: FCV 2-FCV open but cannot deliver flow at 76:45:00 hrs.
   
  WARNING: FCV 2-FCV open but cannot deliver flow at 76:50:00 hrs.
   
  WARNING: FCV 2-FCV open but cannot deliver flow at 76:55:00 hrs.
   
  WARNING: FCV 2-FCV open but cannot deliver flow at 77:00:00 hrs.
   
  WARNING: FCV 2-FCV open but cannot deliver flow at 77:05:00 hrs.
   
  WARNING: FCV 2-FCV open but cannot deliver flow at 77:10:00 hrs.
   
  WARNING: FCV 2-FCV open but cannot deliver flow at 77:15:00 hrs.
   
  WARNING: FCV 2-FCV open but cannot deliver flow at 77:20:00 hrs.
   
  WARNING: FCV 2-FCV open but cannot deliver flow at 77:25:00 hrs.
   
  WARNING: FCV 2-FCV open but cannot deliver flow at 77:30:00 hrs.
   
  WARNING: FCV 2-FCV open but cannot deliver flow at 77:35:00 hrs.
   
  WARNING: FCV 2-FCV open but cannot deliver flow at 77:40:00 hrs.
   
  WARNING: FCV 2-FCV open but cannot deliver flow at 77:45:00 hrs.
   
  WARNING: FCV 2-FCV open but cannot deliver flow at 77:50:00 hrs.
   
  WARNING: FCV 2-FCV open but cannot deliver flow at 77:55:00 hrs.
   
  WARNING: FCV 2-FCV open but cannot deliver flow at 78:00:00 hrs.
   
  WARNING: FCV 2-FCV open but cannot deliver flow at 78:05:00 hrs.
   
  WARNING: FCV 2-FCV open but cannot deliver flow at 78:10:00 hrs.
   
  WARNING: FCV 2-FCV open but cannot deliver flow at 78:15:00 hrs.
   
  WARNING: FCV 2-FCV open but cannot deliver flow at 78:20:00 hrs.
   
  WARNING: FCV 2-FCV open but cannot deliver flow at 78:25:00 hrs.
   
  WARNING: FCV 2-FCV open but cannot deliver flow at 78:30:00 hrs.
   
  WARNING: FCV 2-FCV open but cannot deliver flow at 78:35:00 hrs.
   
  WARNING: FCV 2-FCV open but cannot deliver flow at 78:40:00 hrs.
   
  WARNING: FCV 2-FCV open but cannot deliver flow at 78:45:00 hrs.
   
  WARNING: FCV 2-FCV open but cannot deliver flow at 78:50:00 hrs.
   
  WARNING: FCV 2-FCV open but cannot deliver flow at 78:55:00 hrs.
   
  WARNING: FCV 2-FCV open but cannot deliver flow at 79:00:00 hrs.
   
  WARNING: FCV 2-FCV open but cannot deliver flow at 79:05:00 hrs.
   
  WARNING: FCV 2-FCV open but cannot deliver flow at 79:10:00 hrs.
   
  WARNING: FCV 2-FCV open but cannot deliver flow at 79:15:00 hrs.
   
  WARNING: FCV 2-FCV open but cannot deliver flow at 79:20:00 hrs.
   
  WARNING: FCV 2-FCV open but cannot deliver flow at 79:25:00 hrs.
   
  WARNING: FCV 2-FCV open but cannot deliver flow at 79:30:00 hrs.
   
  WARNING: FCV 2-FCV open but cannot deliver flow at 79:35:00 hrs.
   
  WARNING: FCV 2-FCV open but cannot deliver flow at 79:40:00 hrs.
   
  WARNING: FCV 2-FCV open but cannot deliver flow at 79:45:00 hrs.
   
  WARNING: FCV 2-FCV open but cannot deliver flow at 79:50:00 hrs.
   
  WARNING: FCV 2-FCV open but cannot deliver flow at 79:55:00 hrs.
   
  WARNING: FCV 2-FCV open but cannot deliver flow at 80:00:00 hrs.
   
  WARNING: FCV 2-FCV open but cannot deliver flow at 80:05:00 hrs.
   
  WARNING: FCV 2-FCV open but cannot deliver flow at 80:10:00 hrs.
   
  WARNING: FCV 2-FCV open but cannot deliver flow at 80:15:00 hrs.
   
  WARNING: FCV 2-FCV open but cannot deliver flow at 80:20:00 hrs.
   
  WARNING: FCV 2-FCV open but cannot deliver flow at 80:25:00 hrs.
   
  WARNING: FCV 2-FCV open but cannot deliver flow at 80:30:00 hrs.
   
  WARNING: FCV 2-FCV open but cannot deliver flow at 80:35:00 hrs.
   
  WARNING: FCV 2-FCV open but cannot deliver flow at 80:40:00 hrs.
   
  WARNING: FCV 2-FCV open but cannot deliver flow at 80:45:00 hrs.
   
  WARNING: FCV 2-FCV open but cannot deliver flow at 80:50:00 hrs.
   
  WARNING: FCV 2-FCV open but cannot deliver flow at 80:55:00 hrs.
   
  WARNING: FCV 2-FCV open but cannot deliver flow at 81:00:00 hrs.
   
  WARNING: FCV 2-FCV open but cannot deliver flow at 81:05:00 hrs.
   
  WARNING: FCV 2-FCV open but cannot deliver flow at 81:10:00 hrs.
   
  WARNING: FCV 2-FCV open but cannot deliver flow at 81:15:00 hrs.
   
  WARNING: FCV 2-FCV open but cannot deliver flow at 81:20:00 hrs.
   
  WARNING: FCV 2-FCV open but cannot deliver flow at 81:25:00 hrs.
   
  WARNING: FCV 2-FCV open but cannot deliver flow at 81:30:00 hrs.
   
  WARNING: FCV 2-FCV open but cannot deliver flow at 81:35:00 hrs.
   
  WARNING: FCV 2-FCV open but cannot deliver flow at 81:40:00 hrs.
   
  WARNING: FCV 2-FCV open but cannot deliver flow at 81:45:00 hrs.
   
  WARNING: FCV 2-FCV open but cannot deliver flow at 81:50:00 hrs.
   
  WARNING: FCV 2-FCV open but cannot deliver flow at 81:55:00 hrs.
   
  WARNING: FCV 2-FCV open but cannot deliver flow at 82:00:00 hrs.
   
  WARNING: FCV 2-FCV open but cannot deliver flow at 82:05:00 hrs.
   
  WARNING: FCV 2-FCV open but cannot deliver flow at 82:10:00 hrs.
   
  WARNING: FCV 2-FCV open but cannot deliver flow at 82:15:00 hrs.
   
  WARNING: FCV 2-FCV open but cannot deliver flow at 82:20:00 hrs.
   
  WARNING: FCV 2-FCV open but cannot deliver flow at 82:25:00 hrs.
   
  WARNING: FCV 2-FCV open but cannot deliver flow at 82:30:00 hrs.
   
  WARNING: FCV 2-FCV open but cannot deliver flow at 82:35:00 hrs.
   
  WARNING: FCV 2-FCV open but cannot deliver flow at 82:40:00 hrs.
   
  WARNING: FCV 2-FCV open but cannot deliver flow at 82:45:00 hrs.
   
  WARNING: FCV 2-FCV open but cannot deliver flow at 82:50:00 hrs.
   
  WARNING: FCV 2-FCV open but cannot deliver flow at 82:55:00 hrs.
   
  WARNING: FCV 2-FCV open but cannot deliver flow at 83:00:00 hrs.
   
  WARNING: FCV 2-FCV open but cannot deliver flow at 83:05:00 hrs.
   
  WARNING: FCV 2-FCV open but cannot deliver flow at 83:10:00 hrs.
   
  WARNING: FCV 2-FCV open but cannot deliver flow at 83:15:00 hrs.
   
  WARNING: FCV 2-FCV open but cannot deliver flow at 83:20:00 hrs.
   
  WARNING: FCV 2-FCV open but cannot deliver flow at 83:25:00 hrs.
   
  WARNING: FCV 2-FCV open but cannot deliver flow at 83:30:00 hrs.
   
  WARNING: FCV 2-FCV open but cannot deliver flow at 83:35:00 hrs.
   
  WARNING: FCV 2-FCV open but cannot deliver flow at 83:40:00 hrs.
   
  WARNING: FCV 2-FCV open but cannot deliver flow at 83:45:00 hrs.
   
  WARNING: FCV 2-FCV open but cannot deliver flow at 83:50:00 hrs.
   
  WARNING: FCV 2-FCV open but cannot deliver flow at 83:55:00 hrs.
   
  WARNING: FCV 2-FCV open but cannot deliver flow at 84:00:00 hrs.
   
  WARNING: FCV 2-FCV open but cannot deliver flow at 84:05:00 hrs.
   
  WARNING: FCV 2-FCV open but cannot deliver flow at 84:10:00 hrs.
   
  WARNING: FCV 2-FCV open but cannot deliver flow at 84:15:00 hrs.
   
  WARNING: FCV 2-FCV open but cannot deliver flow at 84:20:00 hrs.
   
  WARNING: FCV 2-FCV open but cannot deliver flow at 84:25:00 hrs.
   
  WARNING: FCV 2-FCV open but cannot deliver flow at 84:30:00 hrs.
   
  WARNING: FCV 2-FCV open but cannot deliver flow at 84:35:00 hrs.
   
  WARNING: FCV 2-FCV open but cannot deliver flow at 84:40:00 hrs.
   
  WARNING: FCV 2-FCV open but cannot deliver flow at 84:45:00 hrs.
   
  WARNING: FCV 2-FCV open but cannot deliver flow at 84:50:00 hrs.
   
  WARNING: FCV 2-FCV open but cannot deliver flow at 84:55:00 hrs.
   
  WARNING: FCV 2-FCV open but cannot deliver flow at 85:00:00 hrs.
   
  WARNING: FCV 2-FCV open but cannot deliver flow at 85:05:00 hrs.
   
  WARNING: FCV 2-FCV open but cannot deliver flow at 85:10:00 hrs.
   
  WARNING: FCV 2-FCV open but cannot deliver flow at 85:15:00 hrs.
   
  WARNING: FCV 2-FCV open but cannot deliver flow at 85:20:00 hrs.
   
  WARNING: FCV 2-FCV open but cannot deliver flow at 85:25:00 hrs.
   
  WARNING: FCV 2-FCV open but cannot deliver flow at 85:30:00 hrs.
   
  WARNING: FCV 2-FCV open but cannot deliver flow at 85:35:00 hrs.
   
  WARNING: FCV 2-FCV open but cannot deliver flow at 85:40:00 hrs.
   
  WARNING: FCV 2-FCV open but cannot deliver flow at 85:45:00 hrs.
   
  WARNING: FCV 2-FCV open but cannot deliver flow at 85:50:00 hrs.
   
  WARNING: FCV 2-FCV open but cannot deliver flow at 85:55:00 hrs.
   
  WARNING: FCV 2-FCV open but cannot deliver flow at 86:00:00 hrs.
   
  WARNING: FCV 2-FCV open but cannot deliver flow at 86:05:00 hrs.
   
  WARNING: FCV 2-FCV open but cannot deliver flow at 86:10:00 hrs.
   
  WARNING: FCV 2-FCV open but cannot deliver flow at 86:15:00 hrs.
   
  WARNING: FCV 2-FCV open but cannot deliver flow at 86:20:00 hrs.
   
  WARNING: FCV 2-FCV open but cannot deliver flow at 86:25:00 hrs.
   
  WARNING: FCV 2-FCV open but cannot deliver flow at 86:30:00 hrs.
   
  WARNING: FCV 2-FCV open but cannot deliver flow at 86:35:00 hrs.
   
  WARNING: FCV 2-FCV open but cannot deliver flow at 86:40:00 hrs.
   
  WARNING: FCV 2-FCV open but cannot deliver flow at 86:45:00 hrs.
   
  WARNING: FCV 2-FCV open but cannot deliver flow at 86:50:00 hrs.
   
  WARNING: FCV 2-FCV open but cannot deliver flow at 86:55:00 hrs.
   
  WARNING: FCV 2-FCV open but cannot deliver flow at 87:00:00 hrs.
   
  WARNING: FCV 2-FCV open but cannot deliver flow at 87:05:00 hrs.
   
  WARNING: FCV 2-FCV open but cannot deliver flow at 87:10:00 hrs.
   
  WARNING: FCV 2-FCV open but cannot deliver flow at 87:15:00 hrs.
   
  WARNING: FCV 2-FCV open but cannot deliver flow at 87:20:00 hrs.
   
  WARNING: FCV 2-FCV open but cannot deliver flow at 87:25:00 hrs.
   
  WARNING: FCV 2-FCV open but cannot deliver flow at 87:30:00 hrs.
   
  WARNING: FCV 2-FCV open but cannot deliver flow at 87:35:00 hrs.
   
  WARNING: FCV 2-FCV open but cannot deliver flow at 87:40:00 hrs.
   
  WARNING: FCV 2-FCV open but cannot deliver flow at 87:45:00 hrs.
   
  WARNING: FCV 2-FCV open but cannot deliver flow at 87:50:00 hrs.
   
  WARNING: FCV 2-FCV open but cannot deliver flow at 87:55:00 hrs.
   
  WARNING: FCV 2-FCV open but cannot deliver flow at 88:00:00 hrs.
   
  WARNING: FCV 2-FCV open but cannot deliver flow at 88:05:00 hrs.
   
  WARNING: FCV 2-FCV open but cannot deliver flow at 88:10:00 hrs.
   
  WARNING: FCV 2-FCV open but cannot deliver flow at 88:15:00 hrs.
   
  WARNING: FCV 2-FCV open but cannot deliver flow at 88:20:00 hrs.
   
  WARNING: FCV 2-FCV open but cannot deliver flow at 88:25:00 hrs.
   
  WARNING: FCV 2-FCV open but cannot deliver flow at 88:30:00 hrs.
   
  WARNING: FCV 2-FCV open but cannot deliver flow at 88:35:00 hrs.
   
  WARNING: FCV 2-FCV open but cannot deliver flow at 88:40:00 hrs.
   
  WARNING: FCV 2-FCV open but cannot deliver flow at 88:45:00 hrs.
   
  WARNING: FCV 2-FCV open but cannot deliver flow at 88:50:00 hrs.
   
  WARNING: FCV 2-FCV open but cannot deliver flow at 88:55:00 hrs.
   
  WARNING: FCV 2-FCV open but cannot deliver flow at 89:00:00 hrs.
   
  WARNING: FCV 2-FCV open but cannot deliver flow at 89:05:00 hrs.
   
  WARNING: FCV 2-FCV open but cannot deliver flow at 89:10:00 hrs.
   
  WARNING: FCV 2-FCV open but cannot deliver flow at 89:15:00 hrs.
   
  WARNING: FCV 2-FCV open but cannot deliver flow at 89:20:00 hrs.
   
  WARNING: FCV 2-FCV open but cannot deliver flow at 89:25:00 hrs.
   
  WARNING: FCV 2-FCV open but cannot deliver flow at 89:30:00 hrs.
   
  WARNING: FCV 2-FCV open but cannot deliver flow at 89:35:00 hrs.
   
  WARNING: FCV 2-FCV open but cannot deliver flow at 89:40:00 hrs.
   
  WARNING: FCV 2-FCV open but cannot deliver flow at 89:45:00 hrs.
   
  WARNING: FCV 2-FCV open but cannot deliver flow at 89:50:00 hrs.
   
  WARNING: FCV 2-FCV open but cannot deliver flow at 89:55:00 hrs.
   
  WARNING: FCV 2-FCV open but cannot deliver flow at 90:00:00 hrs.
   
  WARNING: FCV 2-FCV open but cannot deliver flow at 90:05:00 hrs.
   
  WARNING: FCV 2-FCV open but cannot deliver flow at 90:10:00 hrs.
   
  WARNING: FCV 2-FCV open but cannot deliver flow at 90:15:00 hrs.
   
  WARNING: FCV 2-FCV open but cannot deliver flow at 90:20:00 hrs.
   
  WARNING: FCV 2-FCV open but cannot deliver flow at 90:25:00 hrs.
   
  WARNING: FCV 2-FCV open but cannot deliver flow at 90:30:00 hrs.
   
  WARNING: FCV 2-FCV open but cannot deliver flow at 90:35:00 hrs.
   
  WARNING: FCV 2-FCV open but cannot deliver flow at 90:40:00 hrs.
   
  WARNING: FCV 2-FCV open but cannot deliver flow at 90:45:00 hrs.
   
  WARNING: FCV 2-FCV open but cannot deliver flow at 90:50:00 hrs.
   
  WARNING: FCV 2-FCV open but cannot deliver flow at 90:55:00 hrs.
   
  WARNING: FCV 2-FCV open but cannot deliver flow at 91:00:00 hrs.
   
  WARNING: FCV 2-FCV open but cannot deliver flow at 91:05:00 hrs.
   
  WARNING: FCV 2-FCV open but cannot deliver flow at 91:10:00 hrs.
   
  WARNING: FCV 2-FCV open but cannot deliver flow at 91:15:00 hrs.
   
  WARNING: FCV 2-FCV open but cannot deliver flow at 91:20:00 hrs.
   
  WARNING: FCV 2-FCV open but cannot deliver flow at 91:25:00 hrs.
   
  WARNING: FCV 2-FCV open but cannot deliver flow at 91:30:00 hrs.
   
  WARNING: FCV 2-FCV open but cannot deliver flow at 91:35:00 hrs.
   
  WARNING: FCV 2-FCV open but cannot deliver flow at 91:40:00 hrs.
   
  WARNING: FCV 2-FCV open but cannot deliver flow at 91:45:00 hrs.
   
  WARNING: FCV 2-FCV open but cannot deliver flow at 91:50:00 hrs.
   
  WARNING: FCV 2-FCV open but cannot deliver flow at 91:55:00 hrs.
   
  WARNING: FCV 2-FCV open but cannot deliver flow at 92:00:00 hrs.
   
  WARNING: FCV 2-FCV open but cannot deliver flow at 92:05:00 hrs.
   
  WARNING: FCV 2-FCV open but cannot deliver flow at 92:10:00 hrs.
   
  WARNING: FCV 2-FCV open but cannot deliver flow at 92:15:00 hrs.
   
  WARNING: FCV 2-FCV open but cannot deliver flow at 92:20:00 hrs.
   
  WARNING: FCV 2-FCV open but cannot deliver flow at 92:25:00 hrs.
   
  WARNING: FCV 2-FCV open but cannot deliver flow at 92:30:00 hrs.
   
  WARNING: FCV 2-FCV open but cannot deliver flow at 92:35:00 hrs.
   
  WARNING: FCV 2-FCV open but cannot deliver flow at 92:40:00 hrs.
   
  WARNING: FCV 2-FCV open but cannot deliver flow at 92:45:00 hrs.
   
  WARNING: FCV 2-FCV open but cannot deliver flow at 92:50:00 hrs.
   
  WARNING: FCV 2-FCV open but cannot deliver flow at 92:55:00 hrs.
   
  WARNING: FCV 2-FCV open but cannot deliver flow at 93:00:00 hrs.
   
  WARNING: FCV 2-FCV open but cannot deliver flow at 93:05:00 hrs.
   
  WARNING: FCV 2-FCV open but cannot deliver flow at 93:10:00 hrs.
   
  WARNING: FCV 2-FCV open but cannot deliver flow at 93:15:00 hrs.
   
  WARNING: FCV 2-FCV open but cannot deliver flow at 93:20:00 hrs.
   
  WARNING: FCV 2-FCV open but cannot deliver flow at 93:25:00 hrs.
   
  WARNING: FCV 2-FCV open but cannot deliver flow at 93:30:00 hrs.
   
  WARNING: FCV 2-FCV open but cannot deliver flow at 93:35:00 hrs.
   
  WARNING: FCV 2-FCV open but cannot deliver flow at 93:40:00 hrs.
   
[...]
   
  WARNING: FCV 2-FCV open but cannot deliver flow at 215:15:00 hrs.
   
  WARNING: FCV 2-FCV open but cannot deliver flow at 215:20:00 hrs.
   
  WARNING: FCV 2-FCV open but cannot deliver flow at 215:25:00 hrs.
   
  WARNING: FCV 2-FCV open but cannot deliver flow at 215:30:00 hrs.
   
  WARNING: FCV 2-FCV open but cannot deliver flow at 215:35:00 hrs.
   
  WARNING: FCV 2-FCV open but cannot deliver flow at 215:40:00 hrs.
   
  WARNING: FCV 2-FCV open but cannot deliver flow at 215:45:00 hrs.
   
  WARNING: FCV 2-FCV open but cannot deliver flow at 215:50:00 hrs.
   
  WARNING: FCV 2-FCV open but cannot deliver flow at 215:55:00 hrs.
   
  WARNING: FCV 2-FCV open but cannot deliver flow at 216:00:00 hrs.
   
  WARNING: FCV 2-FCV open but cannot deliver flow at 216:05:00 hrs.
   
  WARNING: FCV 2-FCV open but cannot deliver flow at 216:10:00 hrs.
   
  WARNING: FCV 2-FCV open but cannot deliver flow at 216:15:00 hrs.
   
  WARNING: FCV 2-FCV open but cannot deliver flow at 216:20:00 hrs.
   
  WARNING: FCV 2-FCV open but cannot deliver flow at 216:25:00 hrs.
   
  WARNING: FCV 2-FCV open but cannot deliver flow at 216:30:00 hrs.
   
  WARNING: FCV 2-FCV open but cannot deliver flow at 216:35:00 hrs.
   
  WARNING: FCV 2-FCV open but cannot deliver flow at 216:40:00 hrs.
   
  WARNING: FCV 2-FCV open but cannot deliver flow at 216:45:00 hrs.
   
  WARNING: FCV 2-FCV open but cannot deliver flow at 216:50:00 hrs.
   
  WARNING: FCV 2-FCV open but cannot deliver flow at 216:55:00 hrs.
   
  WARNING: FCV 2-FCV open but cannot deliver flow at 217:00:00 hrs.
   
  WARNING: FCV 2-FCV open but cannot deliver flow at 217:05:00 hrs.
   
  WARNING: FCV 2-FCV open but cannot deliver flow at 217:10:00 hrs.
   
  WARNING: FCV 2-FCV open but cannot deliver flow at 217:15:00 hrs.
   
  WARNING: FCV 2-FCV open but cannot deliver flow at 217:20:00 hrs.
   
  WARNING: FCV 2-FCV open but cannot deliver flow at 217:25:00 hrs.
   
  WARNING: FCV 2-FCV open but cannot deliver flow at 217:30:00 hrs.
   
  WARNING: FCV 2-FCV open but cannot deliver flow at 217:35:00 hrs.
   
  WARNING: FCV 2-FCV open but cannot deliver flow at 217:40:00 hrs.
   
  WARNING: FCV 2-FCV open but cannot deliver flow at 217:45:00 hrs.
   
  WARNING: FCV 2-FCV open but cannot deliver flow at 217:50:00 hrs.
   
  WARNING: FCV 2-FCV open but cannot deliver flow at 217:55:00 hrs.
   
  WARNING: FCV 2-FCV open but cannot deliver flow at 218:00:00 hrs.
   
  WARNING: FCV 2-FCV open but cannot deliver flow at 218:05:00 hrs.
   
  WARNING: FCV 2-FCV open but cannot deliver flow at 218:10:00 hrs.
   
  WARNING: FCV 2-FCV open but cannot deliver flow at 218:15:00 hrs.
   
  WARNING: FCV 2-FCV open but cannot deliver flow at 218:20:00 hrs.
   
  WARNING: FCV 2-FCV open but cannot deliver flow at 218:25:00 hrs.
   
  WARNING: FCV 2-FCV open but cannot deliver flow at 218:30:00 hrs.
   
  WARNING: FCV 2-FCV open but cannot deliver flow at 218:35:00 hrs.
   
  WARNING: FCV 2-FCV open but cannot deliver flow at 218:40:00 hrs.
   
  WARNING: FCV 2-FCV open but cannot deliver flow at 218:45:00 hrs.
   
  WARNING: FCV 2-FCV open but cannot deliver flow at 218:50:00 hrs.
   
  WARNING: FCV 2-FCV open but cannot deliver flow at 218:55:00 hrs.
   
  WARNING: FCV 2-FCV open but cannot deliver flow at 219:00:00 hrs.
   
  WARNING: FCV 2-FCV open but cannot deliver flow at 219:05:00 hrs.
   
  WARNING: FCV 2-FCV open but cannot deliver flow at 219:10:00 hrs.
   
  WARNING: FCV 2-FCV open but cannot deliver flow at 219:15:00 hrs.
   
  WARNING: FCV 2-FCV open but cannot deliver flow at 219:20:00 hrs.
   
  WARNING: FCV 2-FCV open but cannot deliver flow at 219:25:00 hrs.
   
  WARNING: FCV 2-FCV open but cannot deliver flow at 219:30:00 hrs.
   
  WARNING: FCV 2-FCV open but cannot deliver flow at 219:35:00 hrs.
   
  WARNING: FCV 2-FCV open but cannot deliver flow at 219:40:00 hrs.
   
  WARNING: FCV 2-FCV open but cannot deliver flow at 219:45:00 hrs.
   
  WARNING: FCV 2-FCV open but cannot deliver flow at 219:50:00 hrs.
   
  WARNING: FCV 2-FCV open but cannot deliver flow at 219:55:00 hrs.
   
  WARNING: FCV 2-FCV open but cannot deliver flow at 220:00:00 hrs.
   
  WARNING: FCV 2-FCV open but cannot deliver flow at 220:05:00 hrs.
   
  WARNING: FCV 2-FCV open but cannot deliver flow at 220:10:00 hrs.
   
  WARNING: FCV 2-FCV open but cannot deliver flow at 220:15:00 hrs.
   
  WARNING: FCV 2-FCV open but cannot deliver flow at 220:20:00 hrs.
   
  WARNING: FCV 2-FCV open but cannot deliver flow at 220:25:00 hrs.
   
  WARNING: FCV 2-FCV open but cannot deliver flow at 220:30:00 hrs.
   
  WARNING: FCV 2-FCV open but cannot deliver flow at 220:35:00 hrs.
   
  WARNING: FCV 2-FCV open but cannot deliver flow at 220:40:00 hrs.
   
  WARNING: FCV 2-FCV open but cannot deliver flow at 220:45:00 hrs.
   
  WARNING: FCV 2-FCV open but cannot deliver flow at 220:50:00 hrs.
   
  WARNING: FCV 2-FCV open but cannot deliver flow at 220:55:00 hrs.
   
  WARNING: FCV 2-FCV open but cannot deliver flow at 221:00:00 hrs.
   
  WARNING: FCV 2-FCV open but cannot deliver flow at 221:05:00 hrs.
   
  WARNING: FCV 2-FCV open but cannot deliver flow at 221:10:00 hrs.
   
  WARNING: FCV 2-FCV open but cannot deliver flow at 221:15:00 hrs.
   
  WARNING: FCV 2-FCV open but cannot deliver flow at 221:20:00 hrs.
   
  WARNING: FCV 2-FCV open but cannot deliver flow at 221:25:00 hrs.
   
  WARNING: FCV 2-FCV open but cannot deliver flow at 221:30:00 hrs.
   
  WARNING: FCV 2-FCV open but cannot deliver flow at 221:35:00 hrs.
   
  WARNING: FCV 2-FCV open but cannot deliver flow at 221:40:00 hrs.
   
  WARNING: FCV 2-FCV open but cannot deliver flow at 221:45:00 hrs.
   
  WARNING: FCV 2-FCV open but cannot deliver flow at 221:50:00 hrs.
   
  WARNING: FCV 2-FCV open but cannot deliver flow at 221:55:00 hrs.
   
  WARNING: FCV 2-FCV open but cannot deliver flow at 222:00:00 hrs.
   
  WARNING: FCV 2-FCV open but cannot deliver flow at 222:05:00 hrs.
   
  WARNING: FCV 2-FCV open but cannot deliver flow at 222:10:00 hrs.
   
  WARNING: FCV 2-FCV open but cannot deliver flow at 222:15:00 hrs.
   
  WARNING: FCV 2-FCV open but cannot deliver flow at 222:20:00 hrs.
   
  WARNING: FCV 2-FCV open but cannot deliver flow at 222:25:00 hrs.
   
  WARNING: FCV 2-FCV open but cannot deliver flow at 222:30:00 hrs.
   
  WARNING: FCV 2-FCV open but cannot deliver flow at 222:35:00 hrs.
   
  WARNING: FCV 2-FCV open but cannot deliver flow at 222:40:00 hrs.
   
  WARNING: FCV 2-FCV open but cannot deliver flow at 222:45:00 hrs.
   
  WARNING: FCV 2-FCV open but cannot deliver flow at 222:50:00 hrs.
   
  WARNING: FCV 2-FCV open but cannot deliver flow at 222:55:00 hrs.
   
  WARNING: FCV 2-FCV open but cannot deliver flow at 223:00:00 hrs.
   
  WARNING: FCV 2-FCV open but cannot deliver flow at 223:05:00 hrs.
   
  WARNING: FCV 2-FCV open but cannot deliver flow at 223:10:00 hrs.
   
  WARNING: FCV 2-FCV open but cannot deliver flow at 223:15:00 hrs.
   
  WARNING: FCV 2-FCV open but cannot deliver flow at 223:20:00 hrs.
   
  WARNING: FCV 2-FCV open but cannot deliver flow at 223:25:00 hrs.
   
  WARNING: FCV 2-FCV open but cannot deliver flow at 223:30:00 hrs.
   
  WARNING: FCV 2-FCV open but cannot deliver flow at 223:35:00 hrs.
   
  WARNING: FCV 2-FCV open but cannot deliver flow at 223:40:00 hrs.
   
  WARNING: FCV 2-FCV open but cannot deliver flow at 223:45:00 hrs.
   
  WARNING: FCV 2-FCV open but cannot deliver flow at 223:50:00 hrs.
   
  WARNING: FCV 2-FCV open but cannot deliver flow at 223:55:00 hrs.
   
  WARNING: FCV 2-FCV open but cannot deliver flow at 224:00:00 hrs.
   
  WARNING: FCV 2-FCV open but cannot deliver flow at 224:05:00 hrs.
   
  WARNING: FCV 2-FCV open but cannot deliver flow at 224:10:00 hrs.
   
  WARNING: FCV 2-FCV open but cannot deliver flow at 224:15:00 hrs.
   
  WARNING: FCV 2-FCV open but cannot deliver flow at 224:20:00 hrs.
   
  WARNING: FCV 2-FCV open but cannot deliver flow at 224:25:00 hrs.
   
  WARNING: FCV 2-FCV open but cannot deliver flow at 224:30:00 hrs.
   
  WARNING: FCV 2-FCV open but cannot deliver flow at 224:35:00 hrs.
   
  WARNING: FCV 2-FCV open but cannot deliver flow at 224:40:00 hrs.
   
  WARNING: FCV 2-FCV open but cannot deliver flow at 224:45:00 hrs.
   
  WARNING: FCV 2-FCV open but cannot deliver flow at 224:50:00 hrs.
   
  WARNING: FCV 2-FCV open but cannot deliver flow at 224:55:00 hrs.
   
  WARNING: FCV 2-FCV open but cannot deliver flow at 225:00:00 hrs.
   
  WARNING: FCV 2-FCV open but cannot deliver flow at 225:05:00 hrs.
   
  WARNING: FCV 2-FCV open but cannot deliver flow at 225:10:00 hrs.
   
  WARNING: FCV 2-FCV open but cannot deliver flow at 225:15:00 hrs.
   
  WARNING: FCV 2-FCV open but cannot deliver flow at 225:20:00 hrs.
   
  WARNING: FCV 2-FCV open but cannot deliver flow at 225:25:00 hrs.
   
  WARNING: FCV 2-FCV open but cannot deliver flow at 225:30:00 hrs.
   
  WARNING: FCV 2-FCV open but cannot deliver flow at 225:35:00 hrs.
   
  WARNING: FCV 2-FCV open but cannot deliver flow at 225:40:00 hrs.
   
  WARNING: FCV 2-FCV open but cannot deliver flow at 225:45:00 hrs.
   
  WARNING: FCV 2-FCV open but cannot deliver flow at 225:50:00 hrs.
   
  WARNING: FCV 2-FCV open but cannot deliver flow at 225:55:00 hrs.
   
  WARNING: FCV 2-FCV open but cannot deliver flow at 226:00:00 hrs.
   
  WARNING: FCV 2-FCV open but cannot deliver flow at 226:05:00 hrs.
   
  WARNING: FCV 2-FCV open but cannot deliver flow at 226:10:00 hrs.
   
  WARNING: FCV 2-FCV open but cannot deliver flow at 226:15:00 hrs.
   
  WARNING: FCV 2-FCV open but cannot deliver flow at 226:20:00 hrs.
   
  WARNING: FCV 2-FCV open but cannot deliver flow at 226:25:00 hrs.
   
  WARNING: FCV 2-FCV open but cannot deliver flow at 226:30:00 hrs.
   
  WARNING: FCV 2-FCV open but cannot deliver flow at 226:35:00 hrs.
   
  WARNING: FCV 2-FCV open but cannot deliver flow at 226:40:00 hrs.
   
  WARNING: FCV 2-FCV open but cannot deliver flow at 226:45:00 hrs.
   
  WARNING: FCV 2-FCV open but cannot deliver flow at 226:50:00 hrs.
   
  WARNING: FCV 2-FCV open but cannot deliver flow at 226:55:00 hrs.
   
  WARNING: FCV 2-FCV open but cannot deliver flow at 227:00:00 hrs.
   
  WARNING: FCV 2-FCV open but cannot deliver flow at 227:05:00 hrs.
   
  WARNING: FCV 2-FCV open but cannot deliver flow at 227:10:00 hrs.
   
  WARNING: FCV 2-FCV open but cannot deliver flow at 227:15:00 hrs.
   
  WARNING: FCV 2-FCV open but cannot deliver flow at 227:20:00 hrs.
   
  WARNING: FCV 2-FCV open but cannot deliver flow at 227:25:00 hrs.
   
  WARNING: FCV 2-FCV open but cannot deliver flow at 227:30:00 hrs.
   
  WARNING: FCV 2-FCV open but cannot deliver flow at 227:35:00 hrs.
   
  WARNING: FCV 2-FCV open but cannot deliver flow at 227:40:00 hrs.
   
  WARNING: FCV 2-FCV open but cannot deliver flow at 227:45:00 hrs.
   
  WARNING: FCV 2-FCV open but cannot deliver flow at 227:50:00 hrs.
   
  WARNING: FCV 2-FCV open but cannot deliver flow at 227:55:00 hrs.
   
  WARNING: FCV 2-FCV open but cannot deliver flow at 228:00:00 hrs.
   
  WARNING: FCV 2-FCV open but cannot deliver flow at 228:05:00 hrs.
   
  WARNING: FCV 2-FCV open but cannot deliver flow at 228:10:00 hrs.
   
  WARNING: FCV 2-FCV open but cannot deliver flow at 228:15:00 hrs.
   
  WARNING: FCV 2-FCV open but cannot deliver flow at 228:20:00 hrs.
   
  WARNING: FCV 2-FCV open but cannot deliver flow at 228:25:00 hrs.
   
  WARNING: FCV 2-FCV open but cannot deliver flow at 228:30:00 hrs.
   
  WARNING: FCV 2-FCV open but cannot deliver flow at 228:35:00 hrs.
   
  WARNING: FCV 2-FCV open but cannot deliver flow at 228:40:00 hrs.
   
  WARNING: FCV 2-FCV open but cannot deliver flow at 228:45:00 hrs.
   
  WARNING: FCV 2-FCV open but cannot deliver flow at 228:50:00 hrs.
   
  WARNING: FCV 2-FCV open but cannot deliver flow at 228:55:00 hrs.
   
  WARNING: FCV 2-FCV open but cannot deliver flow at 229:00:00 hrs.
   
  WARNING: FCV 2-FCV open but cannot deliver flow at 229:05:00 hrs.
   
  WARNING: FCV 2-FCV open but cannot deliver flow at 229:10:00 hrs.
   
  WARNING: FCV 2-FCV open but cannot deliver flow at 229:15:00 hrs.
   
  WARNING: FCV 2-FCV open but cannot deliver flow at 229:20:00 hrs.
   
  WARNING: FCV 2-FCV open but cannot deliver flow at 229:25:00 hrs.
   
  WARNING: FCV 2-FCV open but cannot deliver flow at 229:30:00 hrs.
   
  WARNING: FCV 2-FCV open but cannot deliver flow at 229:35:00 hrs.
   
  WARNING: FCV 2-FCV open but cannot deliver flow at 229:40:00 hrs.
   
  WARNING: FCV 2-FCV open but cannot deliver flow at 229:45:00 hrs.
   
  WARNING: FCV 2-FCV open but cannot deliver flow at 229:50:00 hrs.
   
  WARNING: FCV 2-FCV open but cannot deliver flow at 229:55:00 hrs.
   
  WARNING: FCV 2-FCV open but cannot deliver flow at 230:00:00 hrs.
   
  WARNING: FCV 2-FCV open but cannot deliver flow at 230:05:00 hrs.
   
  WARNING: FCV 2-FCV open but cannot deliver flow at 230:10:00 hrs.
   
  WARNING: FCV 2-FCV open but cannot deliver flow at 230:15:00 hrs.
   
  WARNING: FCV 2-FCV open but cannot deliver flow at 230:20:00 hrs.
   
  WARNING: FCV 2-FCV open but cannot deliver flow at 230:25:00 hrs.
   
  WARNING: FCV 2-FCV open but cannot deliver flow at 230:30:00 hrs.
   
  WARNING: FCV 2-FCV open but cannot deliver flow at 230:35:00 hrs.
   
  WARNING: FCV 2-FCV open but cannot deliver flow at 230:40:00 hrs.
   
  WARNING: FCV 2-FCV open but cannot deliver flow at 230:45:00 hrs.
   
  WARNING: FCV 2-FCV open but cannot deliver flow at 230:50:00 hrs.
   
  WARNING: FCV 2-FCV open but cannot deliver flow at 230:55:00 hrs.
   
  WARNING: FCV 2-FCV open but cannot deliver flow at 231:00:00 hrs.
   
  WARNING: FCV 2-FCV open but cannot deliver flow at 231:05:00 hrs.
   
  WARNING: FCV 2-FCV open but cannot deliver flow at 231:10:00 hrs.
   
  WARNING: FCV 2-FCV open but cannot deliver flow at 231:15:00 hrs.
   
  WARNING: FCV 2-FCV open but cannot deliver flow at 231:20:00 hrs.
   
  WARNING: FCV 2-FCV open but cannot deliver flow at 231:25:00 hrs.
   
  WARNING: FCV 2-FCV open but cannot deliver flow at 231:30:00 hrs.
   
  WARNING: FCV 2-FCV open but cannot deliver flow at 231:35:00 hrs.
   
  WARNING: FCV 2-FCV open but cannot deliver flow at 231:40:00 hrs.
   
  WARNING: FCV 2-FCV open but cannot deliver flow at 231:45:00 hrs.
   
  WARNING: FCV 2-FCV open but cannot deliver flow at 231:50:00 hrs.
   
  WARNING: FCV 2-FCV open but cannot deliver flow at 231:55:00 hrs.
   
  WARNING: FCV 2-FCV open but cannot deliver flow at 232:00:00 hrs.
   
  WARNING: FCV 2-FCV open but cannot deliver flow at 232:05:00 hrs.
   
  WARNING: FCV 2-FCV open but cannot deliver flow at 232:10:00 hrs.
   
  WARNING: FCV 2-FCV open but cannot deliver flow at 232:15:00 hrs.
   
  WARNING: FCV 2-FCV open but cannot deliver flow at 232:20:00 hrs.
   
  WARNING: FCV 2-FCV open but cannot deliver flow at 232:25:00 hrs.
   
  WARNING: FCV 2-FCV open but cannot deliver flow at 232:30:00 hrs.
   
  WARNING: FCV 2-FCV open but cannot deliver flow at 232:35:00 hrs.
   
  WARNING: FCV 2-FCV open but cannot deliver flow at 232:40:00 hrs.
   
  WARNING: FCV 2-FCV open but cannot deliver flow at 232:45:00 hrs.
   
  WARNING: FCV 2-FCV open but cannot deliver flow at 232:50:00 hrs.
   
  WARNING: FCV 2-FCV open but cannot deliver flow at 232:55:00 hrs.
   
  WARNING: FCV 2-FCV open but cannot deliver flow at 233:00:00 hrs.
   
  WARNING: FCV 2-FCV open but cannot deliver flow at 233:05:00 hrs.
   
  WARNING: FCV 2-FCV open but cannot deliver flow at 233:10:00 hrs.
   
  WARNING: FCV 2-FCV open but cannot deliver flow at 233:15:00 hrs.
   
  WARNING: FCV 2-FCV open but cannot deliver flow at 233:20:00 hrs.
   
  WARNING: FCV 2-FCV open but cannot deliver flow at 233:25:00 hrs.
   
  WARNING: FCV 2-FCV open but cannot deliver flow at 233:30:00 hrs.
   
  WARNING: FCV 2-FCV open but cannot deliver flow at 233:35:00 hrs.
   
  WARNING: FCV 2-FCV open but cannot deliver flow at 233:40:00 hrs.
   
  WARNING: FCV 2-FCV open but cannot deliver flow at 233:45:00 hrs.
   
  WARNING: FCV 2-FCV open but cannot deliver flow at 233:50:00 hrs.
   
  WARNING: FCV 2-FCV open but cannot deliver flow at 233:55:00 hrs.
   
  WARNING: FCV 2-FCV open but cannot deliver flow at 234:00:00 hrs.
   
  WARNING: FCV 2-FCV open but cannot deliver flow at 234:05:00 hrs.
   
  WARNING: FCV 2-FCV open but cannot deliver flow at 234:10:00 hrs.
   
  WARNING: FCV 2-FCV open but cannot deliver flow at 234:15:00 hrs.
   
  WARNING: FCV 2-FCV open but cannot deliver flow at 234:20:00 hrs.
   
  WARNING: FCV 2-FCV open but cannot deliver flow at 234:25:00 hrs.
   
  WARNING: FCV 2-FCV open but cannot deliver flow at 234:30:00 hrs.
   
  WARNING: FCV 2-FCV open but cannot deliver flow at 234:35:00 hrs.
   
  WARNING: FCV 2-FCV open but cannot deliver flow at 234:40:00 hrs.
   
  WARNING: FCV 2-FCV open but cannot deliver flow at 234:45:00 hrs.
   
  WARNING: FCV 2-FCV open but cannot deliver flow at 234:50:00 hrs.
   
  WARNING: FCV 2-FCV open but cannot deliver flow at 234:55:00 hrs.
   
  WARNING: FCV 2-FCV open but cannot deliver flow at 235:00:00 hrs.
   
  WARNING: FCV 2-FCV open but cannot deliver flow at 235:05:00 hrs.
   
  WARNING: FCV 2-FCV open but cannot deliver flow at 235:10:00 hrs.
   
  WARNING: FCV 2-FCV open but cannot deliver flow at 235:15:00 hrs.
   
  WARNING: FCV 2-FCV open but cannot deliver flow at 235:20:00 hrs.
   
  WARNING: FCV 2-FCV open but cannot deliver flow at 235:25:00 hrs.
   
  WARNING: FCV 2-FCV open but cannot deliver flow at 235:30:00 hrs.
   
  WARNING: FCV 2-FCV open but cannot deliver flow at 235:35:00 hrs.
   
  WARNING: FCV 2-FCV open but cannot deliver flow at 235:40:00 hrs.
   
  WARNING: FCV 2-FCV open but cannot deliver flow at 235:45:00 hrs.
   
  WARNING: FCV 2-FCV open but cannot deliver flow at 235:50:00 hrs.
   
  WARNING: FCV 2-FCV open but cannot deliver flow at 235:55:00 hrs.
   
  WARNING: FCV 2-FCV open but cannot deliver flow at 236:00:00 hrs.
   
  WARNING: FCV 2-FCV open but cannot deliver flow at 236:05:00 hrs.
   
  WARNING: FCV 2-FCV open but cannot deliver flow at 236:10:00 hrs.
   
  WARNING: FCV 2-FCV open but cannot deliver flow at 236:15:00 hrs.
   
  WARNING: FCV 2-FCV open but cannot deliver flow at 236:20:00 hrs.
   
  WARNING: FCV 2-FCV open but cannot deliver flow at 236:25:00 hrs.
   
  WARNING: FCV 2-FCV open but cannot deliver flow at 236:30:00 hrs.
   
  WARNING: FCV 2-FCV open but cannot deliver flow at 236:35:00 hrs.
   
  WARNING: FCV 2-FCV open but cannot deliver flow at 236:40:00 hrs.
   
  WARNING: FCV 2-FCV open but cannot deliver flow at 236:45:00 hrs.
   
  WARNING: FCV 2-FCV open but cannot deliver flow at 236:50:00 hrs.
   
  WARNING: FCV 2-FCV open but cannot deliver flow at 236:55:00 hrs.
   
  WARNING: FCV 2-FCV open but cannot deliver flow at 237:00:00 hrs.
   
  WARNING: FCV 2-FCV open but cannot deliver flow at 237:05:00 hrs.
   
  WARNING: FCV 2-FCV open but cannot deliver flow at 237:10:00 hrs.
   
  WARNING: FCV 2-FCV open but cannot deliver flow at 237:15:00 hrs.
   
  WARNING: FCV 2-FCV open but cannot deliver flow at 237:20:00 hrs.
   
  WARNING: FCV 2-FCV open but cannot deliver flow at 237:25:00 hrs.
   
  WARNING: FCV 2-FCV open but cannot deliver flow at 237:30:00 hrs.
   
  WARNING: FCV 2-FCV open but cannot deliver flow at 237:35:00 hrs.
   
  WARNING: FCV 2-FCV open but cannot deliver flow at 237:40:00 hrs.
   
  WARNING: FCV 2-FCV open but cannot deliver flow at 237:45:00 hrs.
   
  WARNING: FCV 2-FCV open but cannot deliver flow at 237:50:00 hrs.
   
  WARNING: FCV 2-FCV open but cannot deliver flow at 237:55:00 hrs.
   
  WARNING: FCV 2-FCV open but cannot deliver flow at 238:00:00 hrs.
   
  WARNING: FCV 2-FCV open but cannot deliver flow at 238:05:00 hrs.
   
  WARNING: FCV 2-FCV open but cannot deliver flow at 238:10:00 hrs.
   
  WARNING: FCV 2-FCV open but cannot deliver flow at 238:15:00 hrs