  Page 1                                    Wed May  8 17:18:19 2024

  ******************************************************************
  *                           E P A N E T                          *
  *                   Hydraulic and Water Quality                  *
  *                   Analysis for Pipe Networks                   *
  *                         Version 2.2                            *
  ******************************************************************
  
  Analysis begun Wed May  8 17:18:19 2024

  Analysis ended Wed May  8 17:18:19 2024
